geometry optimzed in LAMMPS
_audit_creation_date              2020-11-30 
_audit_creation_method            'lammps2cif' 
_symmetry_space_group_name_H-M    'P1' 
_symmetry_Int_Tables_number       1 
_symmetry_cell_setting            triclinic 
loop_ 
_symmetry_equiv_pos_as_xyz 
  x,y,z 
_cell_length_a                    40.59240241402796 
_cell_length_b                    40.333159793761524 
_cell_length_c                    40.442387363170596 
_cell_angle_alpha                 86.73757554298469 
_cell_angle_beta                  87.54003100013531 
_cell_angle_gamma                 93.77390993755711 
loop_ 
_atom_site_label 
_atom_site_type_symbol 
_atom_site_fract_x 
_atom_site_fract_y 
_atom_site_fract_z 
_atom_site_charge 
C1          C  0.10377138  0.27680133  0.52114211     0.03270
C2          C  0.13694125  0.27212354  0.02778840    -0.12880
C3          C  0.14813401  0.23983255  0.03099608     0.00770
C4          C  0.12588429  0.21234496  0.02675068    -0.11410
C5          C  0.09262727  0.21679240  0.52077194     0.03260
C6          C  0.08189301  0.24905001  0.51738556    -0.10830
H7          H  0.15350921  0.29344741  0.03214892     0.08850
H8          H  0.13400907  0.18734022  0.02990362     0.06380
H9          H  0.05598869  0.25246909  0.51379098     0.06230
C10         C  0.32374495  0.19228542  0.09902501     0.03270
C11         C  0.29248630  0.19391219  0.08553189    -0.12880
C12         C  0.27924467  0.22498399  0.07925625     0.00770
C13         C  0.29791876  0.25424403  0.08611445    -0.11410
C14         C  0.32877062  0.25264390  0.10044817     0.03260
C15         C  0.34035861  0.22149263  0.10848504    -0.10830
H16         H  0.27935919  0.17140601  0.07827543     0.08850
H17         H  0.28871499  0.27819714  0.07949577     0.06380
H18         H  0.36399689  0.22008081  0.11980068     0.06230
C19         C  0.17406455  0.44652369  0.20232796     0.03270
C20         C  0.17662372  0.45717663  0.23471412    -0.12880
C21         C  0.20791689  0.46263623  0.24802520     0.00770
C22         C  0.23648318  0.45694196  0.22887885    -0.11410
C23         C  0.23397979  0.44608026  0.19673594     0.03260
C24         C  0.20286500  0.43998529  0.18412908    -0.10830
H25         H  0.15471595  0.46347501  0.24859391     0.08850
H26         H  0.26067073  0.46243018  0.23840607     0.06380
H27         H  0.20124310  0.43240357  0.15891057     0.06230
C28         C  0.25208652  0.02898653  0.42493709     0.03270
C29         C  0.25064040  0.02117678  0.39152261    -0.12880
C30         C  0.21986898  0.01607842  0.37719448     0.00770
C31         C  0.19077848  0.01980957  0.39626197    -0.11410
C32         C  0.19200342  0.02717343  0.42968628     0.03260
C33         C  0.22267157  0.03300753  0.44341752    -0.10830
H34         H  0.27304218  0.01617462  0.37768292     0.08850
H35         H  0.16700938  0.01478197  0.38566954     0.06380
H36         H  0.22359571  0.03730048  0.46960363     0.06230
C37         C  0.01113105  0.12327477  0.27141226     0.03270
C38         C  0.00561138  0.15716597  0.27397792    -0.12880
C39         C  0.99952951  0.17007900  0.30505093     0.00770
C40         C  0.00063026  0.14906925  0.33378581    -0.11410
C41         C  0.00630363  0.11525459  0.33166126     0.03260
C42         C  0.01174862  0.10261060  0.30051608    -0.10830
H43         H  0.00451507  0.17317970  0.25166979     0.08850
H44         H  0.99480160  0.15845533  0.35778709     0.06380
H45         H  0.01346556  0.07605744  0.29895048     0.06230
C46         C  0.42872731  0.34176846  0.35674623     0.03270
C47         C  0.44047551  0.31007630  0.35264191    -0.12880
C48         C  0.44903581  0.29987280  0.32093433     0.00770
C49         C  0.44508140  0.32141380  0.29312498    -0.11410
C50         C  0.43338429  0.35311634  0.29667262     0.03260
C51         C  0.42510662  0.36294043  0.32850329    -0.10830
H52         H  0.44330731  0.29343351  0.37416344     0.08850
H53         H  0.45234778  0.31392440  0.26869885     0.06380
H54         H  0.41692060  0.38763412  0.33128966     0.06230
O55         O  0.02582583  0.41457979  0.01322627    -0.79990
O56         O  0.43087314  0.46333149  0.16931260    -0.81550
O57         O  0.03361954  0.43428164  0.12730966    -0.78570
O58         O  0.44177223  0.37885515  0.10013016    -0.76950
O59         O  0.39646687  0.39371024  0.07233632    -0.78740
O60         O  0.05534929  0.48733277  0.11386849    -0.79670
O61         O  0.45939473  0.41888539  0.15439949    -0.81000
O62         O  0.01773918  0.39341185  0.06683244    -0.81290
Eu63       Eu  0.48164807  0.42843783  0.09763643     2.39200
O64         O  0.42912942  0.44905875  0.09933321    -0.88800
O65         O  0.01588702  0.46405340  0.06087154    -0.92400
C66         C  0.03081314  0.39313152  0.03718576     1.02290
C67         C  0.44188427  0.43428633  0.17505678     1.02110
C68         C  0.05633413  0.45818395  0.12834138     1.02050
C69         C  0.41212298  0.37325032  0.09021974     0.99910
H70         H  0.49274573  0.48216382  0.13919267     0.29660
O71         O  0.48413816  0.48253883  0.11728806    -1.01190
H72         H  0.45890171  0.40634170  0.03729461     0.29690
O73         O  0.45992642  0.42875806  0.04459412    -1.03730
O74         O  0.39974912  0.05296855  0.11463868    -0.80950
O75         O  0.49334255  0.50333803  0.45762605    -0.80490
O76         O  0.01592177  0.04798836  0.13138816    -0.78930
O77         O  0.35860554  0.44864317  0.08654951    -0.82270
O78         O  0.40955789  0.41722159  0.99668232    -0.80130
O79         O  0.06705112  0.01841734  0.04060343    -0.78770
O80         O  0.48195385  0.08857262  0.02795988    -0.80300
O81         O  0.39120735  0.03330942  0.00109855    -0.82220
O82         O  0.02648204  0.07583741  0.05809710    -0.78960
O83         O  0.36999491  0.47983094  0.01244421    -0.81630
O84         O  0.46300577  0.03940497  0.15374482    -0.77370
O85         O  0.05133414  0.48584983  0.99875956    -0.77400
O86         O  0.46237546  0.42693702  0.47438593    -0.77050
O87         O  0.37417918  0.47884255  0.13033888    -0.80540
O88         O  0.41040371  0.07453492  0.06138227    -0.79970
O89         O  0.46264376  0.04616358  0.47237962    -0.78290
Eu90       Eu  0.43074512  0.50225169  0.11965269     2.39770
Eu91       Eu  0.49411100  0.46478159  0.00787232     2.39570
Eu92       Eu  0.01835302  0.01807349  0.07998516     2.38400
Eu93       Eu  0.40682063  0.44931065  0.04696584     2.39880
Eu94       Eu  0.44354332  0.03818398  0.02998743     2.39790
O95         O  0.44082893  0.48453422  0.00975879    -0.92710
O96         O  0.46516701  0.03800393  0.08301075    -0.91600
C97         C  0.39708297  0.07520973  0.09078251     1.02460
C98         C  0.48019777  0.03130249  0.45134504     1.01180
C99         C  0.49292687  0.05237557  0.15345299     1.00570
C100        C  0.35331765  0.46047224  0.11518787     1.02580
C101        C  0.43293231  0.41278250  0.47499121     1.01500
C102        C  0.07260136  0.50470116  0.01291528     1.00350
C103        C  0.01047600  0.09572090  0.03975592     1.00410
C104        C  0.36874664  0.00938799  0.99895673     1.03020
H105        H  0.01067685  0.03314571  0.01228980     0.30390
O106        O  0.49653385  0.01852288  0.02731836    -1.04870
H107        H  0.38668423  0.01077274  0.06760242     0.32440
O108        O  0.40870958  0.50305915  0.06660974    -1.07430
C109        C  0.43130096  0.37624409  0.26699123    -0.05330
C110        C  0.41766190  0.36408692  0.23836978    -0.32760
C111        C  0.41929536  0.38371729  0.20867422     0.36490
C112        C  0.43405925  0.41636015  0.20736689    -0.05690
C113        C  0.44583252  0.42942340  0.23628003    -0.32660
C114        C  0.44472193  0.40957668  0.26600583     0.36400
H115        H  0.40665028  0.33884389  0.23874016     0.16770
O116        O  0.40679486  0.37068423  0.18081521    -0.60150
H117        H  0.45784351  0.45428692  0.23532659     0.16780
O118        O  0.45952747  0.42199072  0.29299272    -0.60250
H119        H  0.44452883  0.43838301  0.30139205     0.43780
H120        H  0.42388798  0.35642318  0.17235305     0.43730
C121        C  0.42474968  0.35470393  0.39036020    -0.05330
C122        C  0.44930003  0.34931790  0.41310801    -0.32760
C123        C  0.45017359  0.36611594  0.44226505     0.36490
C124        C  0.42676704  0.38933036  0.44898799    -0.05690
C125        C  0.40034274  0.39253280  0.42814274    -0.32660
C126        C  0.39917213  0.37534956  0.39885920     0.36400
H127        H  0.46911976  0.33352159  0.40747613     0.16770
O128        O  0.47509598  0.36092337  0.46338599    -0.60150
H129        H  0.38170132  0.40975013  0.43350757     0.16780
O130        O  0.37309384  0.37884840  0.37870531    -0.60250
H131        H  0.37456949  0.40260352  0.37057974     0.43780
H132        H  0.46540986  0.34435445  0.48076935     0.43730
C133        C  0.01030626  0.10821786  0.23871256    -0.05330
C134        C  0.98520938  0.11618745  0.21732462    -0.32760
C135        C  0.48047621  0.09916781  0.18861590     0.36490
C136        C  0.50096424  0.07369716  0.18071544    -0.05690
C137        C  0.02731411  0.06692953  0.20078719    -0.32660
C138        C  0.03189276  0.08374606  0.22988601     0.36400
H139        H  0.96811734  0.13462005  0.22364455     0.16770
O140        O  0.45505200  0.10691335  0.16890483    -0.60150
H141        H  0.04339487  0.04750727  0.19475725     0.16780
O142        O  0.05752417  0.07626456  0.24945362    -0.60250
H143        H  0.05187556  0.05328956  0.25901904     0.43780
H144        H  0.46522962  0.12281680  0.15116861     0.43730
C145        C  0.00013049  0.09208525  0.36127580    -0.05330
C146        C  0.46930499  0.09132895  0.37824716    -0.32760
C147        C  0.46196771  0.06996799  0.40621476     0.36490
C148        C  0.48589155  0.04905007  0.41832956    -0.05690
C149        C  0.01644526  0.04879800  0.40062445    -0.32660
C150        C  0.02363103  0.07016768  0.37216623     0.36400
H151        H  0.45065100  0.10737506  0.36962812     0.16770
O152        O  0.43133268  0.07017510  0.42188255    -0.60150
H153        H  0.03523219  0.03313634  0.40961477     0.16780
O154        O  0.05389394  0.07011350  0.35574582    -0.60250
H155        H  0.06806041  0.08741252  0.36583115     0.43780
H156        H  0.41792421  0.05167995  0.41277650     0.43730
C157        C  0.48794533  0.20412531  0.30761768    -0.05330
C158        C  0.00212590  0.22566577  0.33001422    -0.32760
C159        C  0.48991715  0.25693825  0.33441906     0.36490
C160        C  0.46278073  0.26702676  0.31661163    -0.05690
C161        C  0.44890330  0.24566906  0.29394223    -0.32660
C162        C  0.46103817  0.21443582  0.28956494     0.36400
H163        H  0.02277707  0.21819439  0.34412696     0.16770
O164        O  0.00488621  0.27755086  0.35596834    -0.60150
H165        H  0.42799520  0.25293583  0.28010440     0.16780
O166        O  0.44564179  0.19373844  0.26836002    -0.60250
H167        H  0.42937472  0.17928064  0.28254083     0.43780
H168        H  0.02107971  0.29232980  0.34202715     0.43730
C169        C  0.16192412  0.02196265  0.45187669    -0.05330
C170        C  0.15250940  0.04662960  0.47292123    -0.32760
C171        C  0.12424086  0.04111081  0.99438693     0.36490
C172        C  0.10518355  0.01053392  0.49494883    -0.05690
C173        C  0.11573463  0.48553279  0.47498347    -0.32660
C174        C  0.14361562  0.99102573  0.45361575     0.36400
H175        H  0.16675756  0.07035458  0.47225205     0.16770
O176        O  0.11453415  0.06629694  0.01318440    -0.60150
H177        H  0.10195725  0.46153516  0.47553239     0.16780
O178        O  0.15352372  0.46549279  0.43534999    -0.60250
H179        H  0.13752353  0.46356808  0.41758178     0.43780
H180        H  0.12651634  0.06380430  0.03394283     0.43730
C181        C  0.28265074  0.02519642  0.44306063    -0.05330
C182        C  0.28122603  0.00206461  0.47036064    -0.32760
C183        C  0.30886641  0.49715285  0.48873676     0.36490
C184        C  0.33903433  0.01568301  0.48015455    -0.05690
C185        C  0.34051092  0.03925464  0.45298893    -0.32660
C186        C  0.31262291  0.04374935  0.43415698     0.36400
H187        H  0.25840145  0.48742449  0.47746150     0.16770
O188        O  0.30569611  0.47491677  0.01585091    -0.60150
H189        H  0.36338020  0.05378756  0.44602203     0.16780
O190        O  0.31457911  0.06694852  0.40789123    -0.60250
H191        H  0.32504376  0.05586897  0.38926344     0.43780
H192        H  0.30651076  0.45262424  0.00679233     0.43730
C193        C  0.14299857  0.44825198  0.18448181    -0.05330
C194        C  0.14458268  0.46595667  0.15351964    -0.32760
C195        C  0.11678028  0.46816667  0.13486111     0.36490
C196        C  0.08617251  0.45272025  0.14700018    -0.05690
C197        C  0.08431167  0.43458859  0.17786412    -0.32660
C198        C  0.11251207  0.43256575  0.19681213     0.36400
H199        H  0.16767532  0.47845445  0.14364144     0.16770
O200        O  0.12002466  0.48477275  0.10417081    -0.60150
H201        H  0.06090205  0.42274368  0.18763210     0.16780
O202        O  0.11028047  0.41450262  0.22668697    -0.60250
H203        H  0.09981537  0.42899398  0.24251310     0.43780
H204        H  0.12109702  0.50877312  0.10851372     0.43730
C205        C  0.26349017  0.44670818  0.17408865    -0.05330
C206        C  0.26620366  0.46964403  0.14647916    -0.32760
C207        C  0.29483237  0.47291513  0.12579168     0.36490
C208        C  0.32105968  0.45294791  0.13249378    -0.05690
C209        C  0.31803637  0.42924143  0.15943557    -0.32660
C210        C  0.28929481  0.42590290  0.18013619     0.36400
H211        H  0.24652775  0.48594232  0.14171810     0.16770
O212        O  0.29793488  0.99725348  0.10053798    -0.60150
H213        H  0.33841358  0.41409175  0.16500046     0.16780
O214        O  0.28694235  0.40290380  0.20658145    -0.60250
H215        H  0.27586902  0.38261466  0.19817287     0.43780
H216        H  0.28771022  0.98696774  0.08143589     0.43730
C217        C  0.21106478  0.47668024  0.28090705    -0.05330
C218        C  0.19636208  0.45907975  0.30918441    -0.32760
C219        C  0.19978058  0.47141216  0.34059542     0.36490
C220        C  0.21751090  0.00222245  0.34410654    -0.05690
C221        C  0.23241260  0.01978426  0.31583802    -0.32660
C222        C  0.22912956  0.00731472  0.28436809     0.36400
H223        H  0.18269063  0.43537993  0.30693930     0.16770
O224        O  0.18601891  0.45291723  0.36782854    -0.60150
H225        H  0.24608182  0.04347265  0.31812444     0.16780
O226        O  0.24327006  0.02545490  0.25707794    -0.60250
H227        H  0.22543350  0.03864532  0.24832885     0.43780
H228        H  0.20428100  0.44049911  0.37681305     0.43730
C229        C  0.34209797  0.16172267  0.09846570    -0.05330
C230        C  0.32836373  0.13099462  0.11271190    -0.32760
C231        C  0.34646442  0.10241510  0.11202102     0.36490
C232        C  0.37839839  0.10454428  0.09659997    -0.05690
C233        C  0.39189326  0.13522292  0.08259500    -0.32660
C234        C  0.37415713  0.16349853  0.08325696     0.36400
H235        H  0.30366807  0.12917857  0.12422350     0.16770
O236        O  0.33202368  0.07234610  0.12448939    -0.60150
H237        H  0.41623926  0.13718450  0.07021402     0.16780
O238        O  0.38759930  0.19242433  0.06706450    -0.60200
H239        H  0.40655822  0.19981505  0.08016424     0.43780
H240        H  0.33702733  0.07105982  0.14829068     0.43730
C241        C  0.35126932  0.28292399  0.10273865    -0.05330
C242        C  0.38454239  0.28255183  0.09121804    -0.32760
C243        C  0.40578444  0.31135737  0.08981132     0.36490
C244        C  0.39373772  0.34129220  0.09937642    -0.05690
C245        C  0.36113719  0.34149488  0.11251202    -0.32660
C246        C  0.33993348  0.31256253  0.11438743     0.36400
H247        H  0.39377723  0.26024017  0.08167331     0.16770
O248        O  0.43721131  0.31068038  0.07610732    -0.60150
H249        H  0.35171707  0.36453813  0.12018251     0.16780
O250        O  0.30837870  0.31339175  0.12781439    -0.60250
H251        H  0.29673254  0.32765798  0.11198535     0.43780
H252        H  0.45109998  0.30534667  0.09501774     0.43730
C253        C  0.06836345  0.18767284  0.02280523    -0.05330
C254        C  0.07112846  0.16253605  0.50044915    -0.32760
C255        C  0.05045339  0.13323746  0.00443161     0.36490
C256        C  0.02705351  0.12869161  0.03128245    -0.05690
C257        C  0.02369398  0.15407209  0.05313450    -0.32660
C258        C  0.04399687  0.18357396  0.04890077     0.36400
H259        H  0.08990800  0.16530977  0.48043891     0.16770
O260        O  0.05463836  0.10833985  0.48320337    -0.60150
H261        H  0.00631606  0.15039788  0.07433994     0.16780
O262        O  0.04171681  0.20711203  0.07192769    -0.60250
H263        H  0.02311564  0.22033559  0.06517858     0.43780
H264        H  0.03771743  0.11115207  0.46647588     0.43730
C265        C  0.05317288  0.36613240  0.03100106    -0.05330
C266        C  0.06934421  0.35186635  0.05784990    -0.32760
C267        C  0.08795633  0.32424776  0.05413315     0.36490
C268        C  0.09013708  0.30976724  0.02339714    -0.05690
C269        C  0.07527685  0.32465225  0.49611776    -0.32660
C270        C  0.05756011  0.35312093  0.99953844     0.36400
H271        H  0.06700948  0.36172483  0.08214889     0.16770
O272        O  0.10180154  0.31000149  0.08135192    -0.60150
H273        H  0.07674751  0.31366333  0.47231091     0.16780
O274        O  0.04311680  0.36671286  0.47241179    -0.60250
H275        H  0.06038946  0.38257615  0.46132224     0.43780
H276        H  0.12357948  0.32240685  0.08266312     0.43730
C277        C  0.24621440  0.22714396  0.06503474    -0.05330
C278        C  0.21863362  0.20949160  0.08119370    -0.32760
C279        C  0.18676870  0.21330429  0.07020337     0.36490
C280        C  0.18197341  0.23462772  0.04215478    -0.05690
C281        C  0.20964766  0.25179253  0.02554135    -0.32660
C282        C  0.24156177  0.24800746  0.03661546     0.36400
H283        H  0.22169103  0.19358408  0.10320178     0.16770
O284        O  0.16034206  0.19695365  0.08783301    -0.60150
H285        H  0.20648870  0.26813331  0.50386949     0.16780
O286        O  0.26803246  0.26484489  0.01950431    -0.60250
H287        H  0.27661798  0.24876402  0.50416969     0.43780
H288        H  0.15234429  0.21323277  0.10327351     0.43730
C289        C  0.10377149  0.27680143  0.02114243     0.03270
C290        C  0.13694118  0.27212342  0.52778793    -0.12880
C291        C  0.14813391  0.23983242  0.53099555     0.00770
C292        C  0.12588414  0.21234485  0.52675026    -0.11410
C293        C  0.09262744  0.21679249  0.02077222     0.03260
C294        C  0.08189317  0.24905010  0.01738579    -0.10830
H295        H  0.15350918  0.29344727  0.53214838     0.08850
H296        H  0.13400892  0.18734010  0.52990320     0.06380
H297        H  0.05598886  0.25246916  0.01379111     0.06230
C298        C  0.32374482  0.19228525  0.59902453     0.03270
C299        C  0.29248623  0.19391195  0.58553127    -0.12880
C300        C  0.27924463  0.22498373  0.57925542     0.00770
C301        C  0.29791869  0.25424381  0.58611353    -0.11410
C302        C  0.32877047  0.25264375  0.60044745     0.03260
C303        C  0.34035841  0.22149251  0.60848454    -0.10830
H304        H  0.27935915  0.17140573  0.57827487     0.08850
H305        H  0.28871495  0.27819689  0.57949467     0.06380
H306        H  0.36399660  0.22008073  0.61980036     0.06230
C307        C  0.17406446  0.44652361  0.70232795     0.03270
C308        C  0.17662365  0.45717658  0.73471410    -0.12880
C309        C  0.20791682  0.46263618  0.74802517     0.00770
C310        C  0.23648311  0.45694190  0.72887882    -0.11410
C311        C  0.23397971  0.44608017  0.69673592     0.03260
C312        C  0.20286492  0.43998520  0.68412906    -0.10830
H313        H  0.15471588  0.46347497  0.74859389     0.08850
H314        H  0.26067066  0.46243012  0.73840603     0.06380
H315        H  0.20124302  0.43240345  0.65891057     0.06230
C316        C  0.25208659  0.02898653  0.92493706     0.03270
C317        C  0.25064046  0.02117677  0.89152258    -0.12880
C318        C  0.21986903  0.01607843  0.87719446     0.00770
C319        C  0.19077855  0.01980961  0.89626195    -0.11410
C320        C  0.19200349  0.02717348  0.92968626     0.03260
C321        C  0.22267165  0.03300755  0.94341749    -0.10830
H322        H  0.27304224  0.01617460  0.87768289     0.08850
H323        H  0.16700944  0.01478202  0.88566952     0.06380
H324        H  0.22359579  0.03730051  0.96960360     0.06230
C325        C  0.01113104  0.12327474  0.77141221     0.03270
C326        C  0.00561136  0.15716594  0.77397788    -0.12880
C327        C  0.99952952  0.17007897  0.80505089     0.00770
C328        C  0.00063031  0.14906923  0.83378576    -0.11410
C329        C  0.00630367  0.11525457  0.83166121     0.03260
C330        C  0.01174863  0.10261057  0.80051603    -0.10830
H331        H  0.00451502  0.17317966  0.75166974     0.08850
H332        H  0.99480167  0.15845531  0.85778705     0.06380
H333        H  0.01346557  0.07605741  0.79895043     0.06230
C334        C  0.42872733  0.34176842  0.85674630     0.03270
C335        C  0.44047553  0.31007626  0.85264198    -0.12880
C336        C  0.44903579  0.29987274  0.82093441     0.00770
C337        C  0.44508135  0.32141372  0.79312505    -0.11410
C338        C  0.43338424  0.35311626  0.79667268     0.03260
C339        C  0.42510661  0.36294037  0.82850335    -0.10830
H340        H  0.44330737  0.29343349  0.87416352     0.08850
H341        H  0.45234770  0.31392430  0.76869892     0.06380
H342        H  0.41692058  0.38763406  0.83128971     0.06230
O343        O  0.02582573  0.41457969  0.51322622    -0.79990
O344        O  0.43087308  0.46333132  0.66931260    -0.81550
O345        O  0.03361944  0.43428146  0.62730963    -0.78570
O346        O  0.44177207  0.37885499  0.60013004    -0.76950
O347        O  0.39646676  0.39371016  0.57233617    -0.78740
O348        O  0.05534919  0.48733260  0.61386849    -0.79670
O349        O  0.45939463  0.41888520  0.65439946    -0.81000
O350        O  0.01773909  0.39341170  0.56683237    -0.81290
Eu351      Eu  0.48164797  0.42843766  0.59763640     2.39200
O352        O  0.42912932  0.44905861  0.59933318    -0.88800
O353        O  0.01588692  0.46405326  0.56087153    -0.92400
C354        C  0.03081304  0.39313140  0.53718568     1.02290
C355        C  0.44188420  0.43428615  0.67505677     1.02110
C356        C  0.05633404  0.45818378  0.62834136     1.02050
C357        C  0.41212283  0.37325019  0.59021958     0.99910
H358        H  0.49274564  0.48216362  0.63919267     0.29660
O359        O  0.48413807  0.48253865  0.61728806    -1.01190
H360        H  0.45890161  0.40634162  0.53729454     0.29690
O361        O  0.45992633  0.42875796  0.54459408    -1.03730
O362        O  0.39974903  0.05296839  0.61463873    -0.80950
O363        O  0.49334261  0.50333806  0.95762604    -0.80490
O364        O  0.01592169  0.04798825  0.63138817    -0.78930
O365        O  0.35860546  0.44864307  0.58654947    -0.82270
O366        O  0.40955780  0.41722157  0.49668226    -0.80130
O367        O  0.06705104  0.01841723  0.54060345    -0.78770
O368        O  0.48195376  0.08857249  0.52795992    -0.80300
O369        O  0.39120729  0.03330936  0.50109857    -0.82220
O370        O  0.02648193  0.07583731  0.55809711    -0.78960
O371        O  0.36999482  0.47983091  0.51244421    -0.81630
O372        O  0.46300567  0.03940481  0.65374484    -0.77370
O373        O  0.05133405  0.48584974  0.49875954    -0.77400
O374        O  0.46237554  0.42693706  0.97438597    -0.77050
O375        O  0.37417910  0.47884239  0.63033888    -0.80540
O376        O  0.41040365  0.07453477  0.56138233    -0.79970
O377        O  0.46264382  0.04616364  0.97237959    -0.78290
Eu378      Eu  0.43074505  0.50225153  0.61965271     2.39770
Eu379      Eu  0.49411093  0.46478151  0.50787231     2.39570
Eu380      Eu  0.01835294  0.01807338  0.57998516     2.38400
Eu381      Eu  0.40682055  0.44931058  0.54696580     2.39880
Eu382      Eu  0.44354325  0.03818387  0.52998745     2.39790
O383        O  0.44082886  0.48453415  0.50975876    -0.92710
O384        O  0.46516693  0.03800378  0.58301077    -0.91600
C385        C  0.39708289  0.07520957  0.59078256     1.02460
C386        C  0.48019782  0.03130253  0.95134502     1.01180
C387        C  0.49292677  0.05237542  0.65345300     1.00570
C388        C  0.35331756  0.46047210  0.61518785     1.02580
C389        C  0.43293239  0.41278252  0.97499127     1.01500
C390        C  0.07260126  0.50470107  0.51291528     1.00350
C391        C  0.01047589  0.09572080  0.53975594     1.00410
C392        C  0.36874657  0.00938794  0.49895673     1.03020
H393        H  0.01067677  0.03314562  0.51228981     0.30390
O394        O  0.49653377  0.01852276  0.52731837    -1.04870
H395        H  0.38668415  0.01077263  0.56760243     0.32440
O396        O  0.40870950  0.50305906  0.56660976    -1.07430
C397        C  0.43130089  0.37624399  0.76699128    -0.05330
C398        C  0.41766184  0.36408679  0.73836984    -0.32760
C399        C  0.41929531  0.38371712  0.70867425     0.36490
C400        C  0.43405919  0.41635998  0.70736689    -0.05690
C401        C  0.44583244  0.42942327  0.73628002    -0.32660
C402        C  0.44472185  0.40957659  0.76600584     0.36400
H403        H  0.40665023  0.33884375  0.73874023     0.16770
O404        O  0.40679482  0.37068402  0.68081525    -0.60150
H405        H  0.45784342  0.45428680  0.73532656     0.16780
O406        O  0.45952738  0.42199066  0.79299272    -0.60250
H407        H  0.44452873  0.43838296  0.80139203     0.43780
H408        H  0.42388796  0.35642299  0.67235310     0.43730
C409        C  0.42474973  0.35470392  0.89036026    -0.05330
C410        C  0.44930010  0.34931792  0.91310806    -0.32760
C411        C  0.45017369  0.36611597  0.94226509     0.36490
C412        C  0.42676713  0.38933038  0.94898804    -0.05690
C413        C  0.40034280  0.39253279  0.92814281    -0.32660
C414        C  0.39917218  0.37534954  0.89885928     0.36400
H415        H  0.46911984  0.33352161  0.90747617     0.16770
O416        O  0.47509609  0.36092342  0.96338601    -0.60150
H417        H  0.38170137  0.40975011  0.93350765     0.16780
O418        O  0.37309387  0.37884836  0.87870542    -0.60250
H419        H  0.37456950  0.40260348  0.87057983     0.43780
H420        H  0.46540999  0.34435450  0.98076939     0.43730
C421        C  0.01030623  0.10821782  0.73871252    -0.05330
C422        C  0.98520932  0.11618739  0.71732459    -0.32760
C423        C  0.48047609  0.09916767  0.68861590     0.36490
C424        C  0.50096415  0.07369703  0.68071544    -0.05690
C425        C  0.02731405  0.06692947  0.70078716    -0.32660
C426        C  0.03189272  0.08374601  0.72988596     0.36400
H427        H  0.96811728  0.13461998  0.72364452     0.16770
O428        O  0.45505185  0.10691316  0.66890486    -0.60150
H429        H  0.04339483  0.04750721  0.69475723     0.16780
O430        O  0.05752416  0.07626455  0.74945355    -0.60250
H431        H  0.05187557  0.05328955  0.75901899     0.43780
H432        H  0.46522945  0.12281660  0.65116861     0.43730
C433        C  0.00013054  0.09208524  0.86127575    -0.05330
C434        C  0.46930502  0.09132892  0.87824710    -0.32760
C435        C  0.46196775  0.06996798  0.90621471     0.36490
C436        C  0.48589159  0.04905008  0.91832953    -0.05690
C437        C  0.01644533  0.04879801  0.90062442    -0.32660
C438        C  0.02363109  0.07016768  0.87216619     0.36400
H439        H  0.45065102  0.10737502  0.86962804     0.16770
O440        O  0.43133271  0.07017509  0.92188250    -0.60150
H441        H  0.03523227  0.03313637  0.90961476     0.16780
O442        O  0.05389400  0.07011350  0.85574578    -0.60250
H443        H  0.06806046  0.08741253  0.86583111     0.43780
H444        H  0.41792425  0.05167992  0.91277646     0.43730
C445        C  0.48794532  0.20412527  0.80761765    -0.05330
C446        C  0.00212595  0.22566574  0.83001419    -0.32760
C447        C  0.48991716  0.25693819  0.83441906     0.36490
C448        C  0.46278070  0.26702670  0.81661169    -0.05690
C449        C  0.44890324  0.24566900  0.79394230    -0.32660
C450        C  0.46103812  0.21443577  0.78956497     0.36400
H451        H  0.02277714  0.21819436  0.84412690     0.16770
O452        O  0.00488628  0.27755081  0.85596835    -0.60150
H453        H  0.42799511  0.25293576  0.78010451     0.16780
O454        O  0.44564172  0.19373840  0.76836006    -0.60250
H455        H  0.42937468  0.17928058  0.78254089     0.43780
H456        H  0.02107976  0.29232976  0.84202714     0.43730
C457        C  0.16192420  0.02196272  0.95187667    -0.05330
C458        C  0.15250945  0.04662970  0.97292116    -0.32760
C459        C  0.12424080  0.04111070  0.49438700     0.36490
C460        C  0.10518362  0.01053402  0.99494881    -0.05690
C461        C  0.11573471  0.48553285  0.97498347    -0.32660
C462        C  0.14361571  0.99102579  0.95361577     0.36400
H463        H  0.16675761  0.07035468  0.97225194     0.16770
O464        O  0.11453412  0.06629680  0.51318452    -0.60150
H465        H  0.10195731  0.46153522  0.97553240     0.16780
O466        O  0.15352376  0.46549281  0.93534999    -0.60250
H467        H  0.13752356  0.46356811  0.91758178     0.43780
H468        H  0.12651630  0.06380411  0.53394294     0.43730
C469        C  0.28265082  0.02519642  0.94306060    -0.05330
C470        C  0.28122611  0.00206463  0.97036063    -0.32760
C471        C  0.30886650  0.49715280  0.98873668     0.36490
C472        C  0.33903440  0.01568304  0.98015454    -0.05690
C473        C  0.34051099  0.03925464  0.95298889    -0.32660
C474        C  0.31262298  0.04374934  0.93415693     0.36400
H475        H  0.25840155  0.48742441  0.97746139     0.16770
O476        O  0.30569601  0.47491683  0.51585100    -0.60150
H477        H  0.36338028  0.05378755  0.94602199     0.16780
O478        O  0.31457919  0.06694848  0.90789117    -0.60250
H479        H  0.32504384  0.05586892  0.88926339     0.43780
H480        H  0.30651063  0.45262429  0.50679242     0.43730
C481        C  0.14299849  0.44825187  0.68448180    -0.05330
C482        C  0.14458259  0.46595651  0.65351960    -0.32760
C483        C  0.11678018  0.46816648  0.63486107     0.36490
C484        C  0.08617241  0.45272007  0.64700016    -0.05690
C485        C  0.08431158  0.43458846  0.67786413    -0.32660
C486        C  0.11251198  0.43256565  0.69681214     0.36400
H487        H  0.16767523  0.47845428  0.64364139     0.16770
O488        O  0.12002456  0.48477252  0.60417074    -0.60150
H489        H  0.06090196  0.42274357  0.68763212     0.16780
O490        O  0.11028038  0.41450257  0.72668700    -0.60250
H491        H  0.09981529  0.42899395  0.74251311     0.43780
H492        H  0.12109693  0.50877289  0.60851362     0.43730
C493        C  0.26349008  0.44670807  0.67408862    -0.05330
C494        C  0.26620358  0.46964391  0.64647913    -0.32760
C495        C  0.29483229  0.47291501  0.62579164     0.36490
C496        C  0.32105959  0.45294777  0.63249375    -0.05690
C497        C  0.31803628  0.42924131  0.65943555    -0.32660
C498        C  0.28929472  0.42590278  0.68013617     0.36400
H499        H  0.24652768  0.48594222  0.64171807     0.16770
O500        O  0.29793482  0.99725340  0.60053794    -0.60150
H501        H  0.33841349  0.41409162  0.66500044     0.16780
O502        O  0.28694225  0.40290369  0.70658144    -0.60250
H503        H  0.27586890  0.38261456  0.69817288     0.43780
H504        H  0.28771013  0.98696767  0.58143586     0.43730
C505        C  0.21106473  0.47668021  0.78090701    -0.05330
C506        C  0.19636203  0.45907973  0.80918439    -0.32760
C507        C  0.19978057  0.47141214  0.84059539     0.36490
C508        C  0.21751093  0.00222246  0.84410652    -0.05690
C509        C  0.23241262  0.01978427  0.81583799    -0.32660
C510        C  0.22912954  0.00731473  0.78436806     0.36400
H511        H  0.18269056  0.43537991  0.80693929     0.16770
O512        O  0.18601890  0.45291721  0.86782853    -0.60150
H513        H  0.24608184  0.04347266  0.81812440     0.16780
O514        O  0.24327003  0.02545491  0.75707790    -0.60250
H515        H  0.22543347  0.03864534  0.74832883     0.43780
H516        H  0.20428099  0.44049908  0.87681302     0.43730
C517        C  0.34209788  0.16172251  0.59846543    -0.05330
C518        C  0.32836357  0.13099447  0.61271160    -0.32760
C519        C  0.34646428  0.10241495  0.61202087     0.36490
C520        C  0.37839833  0.10454413  0.59660001    -0.05690
C521        C  0.39189328  0.13522276  0.58259511    -0.32660
C522        C  0.37415713  0.16349836  0.58325691     0.36400
H523        H  0.30366784  0.12917842  0.62422305     0.16770
O524        O  0.33202348  0.07234595  0.62448918    -0.60150
H525        H  0.41623934  0.13718434  0.57021427     0.16780
O526        O  0.38759938  0.19242415  0.56706447    -0.60200
H527        H  0.40655822  0.19981489  0.58016430     0.43780
H528        H  0.33702703  0.07105965  0.64829049     0.43730
C529        C  0.35126911  0.28292387  0.60273804    -0.05330
C530        C  0.38454232  0.28255168  0.59121787    -0.32760
C531        C  0.40578437  0.31135722  0.58981134     0.36490
C532        C  0.39373752  0.34129208  0.59937617    -0.05690
C533        C  0.36113683  0.34149479  0.61251135    -0.32660
C534        C  0.33993312  0.31256245  0.61438657     0.36400
H535        H  0.39377729  0.26023998  0.58167335     0.16770
O536        O  0.43721140  0.31068017  0.57610777    -0.60150
H537        H  0.35171660  0.36453807  0.62018165     0.16780
O538        O  0.30837819  0.31339172  0.62781312    -0.60250
H539        H  0.29673224  0.32765794  0.61198389     0.43780
H540        H  0.45109980  0.30534649  0.59501841     0.43730
C541        C  0.06836327  0.18767275  0.52280503    -0.05330
C542        C  0.07112867  0.16253617  0.00044932    -0.32760
C543        C  0.05045321  0.13323733  0.50443152     0.36490
C544        C  0.02705339  0.12869149  0.53128242    -0.05690
C545        C  0.02369390  0.15407200  0.55313445    -0.32660
C546        C  0.04399675  0.18357389  0.54890063     0.36400
H547        H  0.08990826  0.16530990  0.98043912     0.16770
O548        O  0.05463858  0.10834000  0.98320343    -0.60150
H549        H  0.00631602  0.15039781  0.57433992     0.16780
O550        O  0.04171673  0.20711199  0.57192752    -0.60250
H551        H  0.02311552  0.22033551  0.56517845     0.43780
H552        H  0.03771769  0.11115226  0.96647591     0.43730
C553        C  0.05317278  0.36613228  0.53100093    -0.05330
C554        C  0.06934413  0.35186619  0.55784974    -0.32760
C555        C  0.08795627  0.32424762  0.55413292     0.36490
C556        C  0.09013700  0.30976715  0.52339688    -0.05690
C557        C  0.07527696  0.32465231  0.99611798    -0.32660
C558        C  0.05755999  0.35312086  0.49953829     0.36400
H559        H  0.06700942  0.36172463  0.58214874     0.16770
O560        O  0.10180151  0.31000131  0.58135165    -0.60150
H561        H  0.07674764  0.31366335  0.97231115     0.16780
O562        O  0.04311694  0.36671289  0.97241191    -0.60250
H563        H  0.06038961  0.38257617  0.96132236     0.43780
H564        H  0.12357949  0.32240662  0.58266280     0.43730
C565        C  0.24621435  0.22714364  0.56503393    -0.05330
C566        C  0.21863355  0.20949155  0.58119314    -0.32760
C567        C  0.18676861  0.21330432  0.57020290     0.36490
C568        C  0.18197333  0.23462754  0.54215415    -0.05690
C569        C  0.20964760  0.25179205  0.52554046    -0.32660
C570        C  0.24156172  0.24800690  0.53661449     0.36400
H571        H  0.22169096  0.19358423  0.60320135     0.16770
O572        O  0.16034196  0.19695397  0.58783276    -0.60150
H573        H  0.20648878  0.26813395  0.00387049     0.16780
O574        O  0.26803244  0.26484404  0.51950311    -0.60250
H575        H  0.27661817  0.24876506  0.00417077     0.43780
H576        H  0.15234435  0.21323328  0.60327314     0.43730
C577        C  0.10377137  0.77680133  0.52114212     0.03270
C578        C  0.13694127  0.77212355  0.02778841    -0.12880
C579        C  0.14813402  0.73983256  0.03099610     0.00770
C580        C  0.12588431  0.71234497  0.02675070    -0.11410
C581        C  0.09262726  0.71679239  0.52077196     0.03260
C582        C  0.08189300  0.74905001  0.51738557    -0.10830
H583        H  0.15350923  0.79344741  0.03214894     0.08850
H584        H  0.13400910  0.68734023  0.02990364     0.06380
H585        H  0.05598868  0.75246909  0.51379099     0.06230
C586        C  0.32374496  0.69228542  0.09902503     0.03270
C587        C  0.29248631  0.69391220  0.08553192    -0.12880
C588        C  0.27924469  0.72498401  0.07925628     0.00770
C589        C  0.29791877  0.75424404  0.08611450    -0.11410
C590        C  0.32877064  0.75264390  0.10044821     0.03260
C591        C  0.34035863  0.72149264  0.10848506    -0.10830
H592        H  0.27935920  0.67140602  0.07827545     0.08850
H593        H  0.28871500  0.77819716  0.07949582     0.06380
H594        H  0.36399691  0.72008081  0.11980070     0.06230
C595        C  0.17406455  0.94652366  0.20232796     0.03270
C596        C  0.17662372  0.95717660  0.23471412    -0.12880
C597        C  0.20791689  0.96263619  0.24802521     0.00770
C598        C  0.23648318  0.95694192  0.22887886    -0.11410
C599        C  0.23397979  0.94608023  0.19673594     0.03260
C600        C  0.20286501  0.93998526  0.18412908    -0.10830
H601        H  0.15471595  0.96347499  0.24859391     0.08850
H602        H  0.26067073  0.96243014  0.23840608     0.06380
H603        H  0.20124311  0.93240354  0.15891057     0.06230
C604        C  0.25208651  0.52898654  0.42493711     0.03270
C605        C  0.25064040  0.52117679  0.39152263    -0.12880
C606        C  0.21986898  0.51607843  0.37719449     0.00770
C607        C  0.19077848  0.51980959  0.39626197    -0.11410
C608        C  0.19200341  0.52717345  0.42968628     0.03260
C609        C  0.22267156  0.53300755  0.44341753    -0.10830
H610        H  0.27304218  0.51617463  0.37768294     0.08850
H611        H  0.16700938  0.51478199  0.38566954     0.06380
H612        H  0.22359569  0.53730051  0.46960364     0.06230
C613        C  0.01113106  0.62327477  0.27141226     0.03270
C614        C  0.00561138  0.65716597  0.27397793    -0.12880
C615        C  0.99952951  0.67007900  0.30505093     0.00770
C616        C  0.00063027  0.64906924  0.33378581    -0.11410
C617        C  0.00630364  0.61525458  0.33166126     0.03260
C618        C  0.01174863  0.60261059  0.30051608    -0.10830
H619        H  0.00451506  0.67317970  0.25166980     0.08850
H620        H  0.99480161  0.65845532  0.35778709     0.06380
H621        H  0.01346557  0.57605744  0.29895047     0.06230
C622        C  0.42872729  0.84176844  0.35674623     0.03270
C623        C  0.44047549  0.81007629  0.35264190    -0.12880
C624        C  0.44903579  0.79987279  0.32093433     0.00770
C625        C  0.44508139  0.82141379  0.29312498    -0.11410
C626        C  0.43338427  0.85311633  0.29667262     0.03260
C627        C  0.42510660  0.86294041  0.32850329    -0.10830
H628        H  0.44330730  0.79343350  0.37416344     0.08850
H629        H  0.45234776  0.81392439  0.26869885     0.06380
H630        H  0.41692057  0.88763410  0.33128966     0.06230
O631        O  0.02582583  0.91457979  0.01322627    -0.79990
O632        O  0.43087314  0.96333149  0.16931260    -0.81550
O633        O  0.03361955  0.93428163  0.12730966    -0.78570
O634        O  0.44177225  0.87885515  0.10013017    -0.76950
O635        O  0.39646688  0.89371024  0.07233633    -0.78740
O636        O  0.05534930  0.98733276  0.11386849    -0.79670
O637        O  0.45939474  0.91888539  0.15439949    -0.81000
O638        O  0.01773919  0.89341185  0.06683244    -0.81290
Eu639      Eu  0.48164809  0.92843784  0.09763644     2.39200
O640        O  0.42912943  0.94905876  0.09933322    -0.88800
O641        O  0.01588703  0.96405339  0.06087154    -0.92400
C642        C  0.03081315  0.89313152  0.03718576     1.02290
C643        C  0.44188428  0.93428633  0.17505678     1.02110
C644        C  0.05633414  0.95818395  0.12834138     1.02050
C645        C  0.41212300  0.87325032  0.09021975     0.99910
H646        H  0.49274573  0.98216383  0.13919267     0.29660
O647        O  0.48413816  0.98253883  0.11728807    -1.01190
H648        H  0.45890172  0.90634170  0.03729461     0.29690
O649        O  0.45992643  0.92875806  0.04459413    -1.03730
O650        O  0.39974913  0.55296856  0.11463867    -0.80950
O651        O  0.49334255  0.00333802  0.45762605    -0.80490
O652        O  0.01592176  0.54798837  0.13138816    -0.78930
O653        O  0.35860555  0.94864316  0.08654952    -0.82270
O654        O  0.40955790  0.91722159  0.99668233    -0.80130
O655        O  0.06705113  0.51841733  0.04060344    -0.78770
O656        O  0.48195385  0.58857261  0.02795988    -0.80300
O657        O  0.39120736  0.53330942  0.00109854    -0.82220
O658        O  0.02648205  0.57583741  0.05809710    -0.78960
O659        O  0.36999490  0.97983094  0.01244422    -0.81630
O660        O  0.46300577  0.53940497  0.15374481    -0.77370
O661        O  0.05133414  0.98584983  0.99875955    -0.77400
O662        O  0.46237546  0.92693700  0.47438593    -0.77050
O663        O  0.37417918  0.97884254  0.13033889    -0.80540
O664        O  0.41040372  0.57453492  0.06138226    -0.79970
O665        O  0.46264377  0.54616359  0.47237962    -0.78290
Eu666      Eu  0.43074513  0.00225169  0.11965270     2.39770
Eu667      Eu  0.49411100  0.96478160  0.00787233     2.39570
Eu668      Eu  0.01835302  0.51807350  0.07998516     2.38400
Eu669      Eu  0.40682064  0.94931065  0.04696584     2.39880
Eu670      Eu  0.44354332  0.53818398  0.02998742     2.39790
O671        O  0.44082893  0.98453422  0.00975879    -0.92710
O672        O  0.46516702  0.53800393  0.08301074    -0.91600
C673        C  0.39708297  0.57520973  0.09078250     1.02460
C674        C  0.48019777  0.53130250  0.45134504     1.01180
C675        C  0.49292687  0.55237557  0.15345298     1.00570
C676        C  0.35331765  0.96047222  0.11518788     1.02580
C677        C  0.43293230  0.91278248  0.47499121     1.01500
C678        C  0.07260135  0.00470117  0.01291527     1.00350
C679        C  0.01047602  0.59572091  0.03975592     1.00410
C680        C  0.36874665  0.50938799  0.99895671     1.03020
H681        H  0.01067686  0.53314571  0.01228979     0.30390
O682        O  0.49653385  0.51852287  0.02731835    -1.04870
H683        H  0.38668423  0.51077274  0.06760241     0.32440
O684        O  0.40870958  0.00305915  0.06660975    -1.07430
C685        C  0.43130094  0.87624408  0.26699123    -0.05330
C686        C  0.41766190  0.86408691  0.23836978    -0.32760
C687        C  0.41929536  0.88371728  0.20867421     0.36490
C688        C  0.43405925  0.91636014  0.20736689    -0.05690
C689        C  0.44583250  0.92942340  0.23628004    -0.32660
C690        C  0.44472191  0.90957668  0.26600584     0.36400
H691        H  0.40665029  0.83884388  0.23874015     0.16770
O692        O  0.40679488  0.87068421  0.18081520    -0.60150
H693        H  0.45784348  0.95428692  0.23532661     0.16780
O694        O  0.45952742  0.92199072  0.29299273    -0.60250
H695        H  0.44452878  0.93838301  0.30139206     0.43780
H696        H  0.42388801  0.85642317  0.17235305     0.43730
C697        C  0.42474967  0.85470391  0.39036020    -0.05330
C698        C  0.44930002  0.84931789  0.41310801    -0.32760
C699        C  0.45017360  0.86611593  0.44226504     0.36490
C700        C  0.42676704  0.88933035  0.44898799    -0.05690
C701        C  0.40034273  0.89253278  0.42814275    -0.32660
C702        C  0.39917212  0.87534954  0.39885921     0.36400
H703        H  0.46911976  0.83352158  0.40747612     0.16770
O704        O  0.47509599  0.86092337  0.46338597    -0.60150
H705        H  0.38170130  0.90975010  0.43350758     0.16780
O706        O  0.37309382  0.87884837  0.37870533    -0.60250
H707        H  0.37456946  0.90260349  0.37057975     0.43780
H708        H  0.46540988  0.84435445  0.48076934     0.43730
C709        C  0.01030626  0.60821787  0.23871256    -0.05330
C710        C  0.98520937  0.61618745  0.21732463    -0.32760
C711        C  0.48047621  0.59916781  0.18861589     0.36490
C712        C  0.50096425  0.57369716  0.18071543    -0.05690
C713        C  0.02731411  0.56692955  0.20078718    -0.32660
C714        C  0.03189276  0.58374607  0.22988600     0.36400
H715        H  0.96811733  0.63462004  0.22364457     0.16770
O716        O  0.45505200  0.60691335  0.16890482    -0.60150
H717        H  0.04339488  0.54750730  0.19475724     0.16780
O718        O  0.05752419  0.57626458  0.24945360    -0.60250
H719        H  0.05187558  0.55328958  0.25901902     0.43780
H720        H  0.46522963  0.62281680  0.15116860     0.43730
C721        C  0.00013050  0.59208524  0.36127580    -0.05330
C722        C  0.46930499  0.59132894  0.37824716    -0.32760
C723        C  0.46196771  0.56996799  0.40621476     0.36490
C724        C  0.48589155  0.54905007  0.41832956    -0.05690
C725        C  0.01644527  0.54879799  0.40062445    -0.32660
C726        C  0.02363104  0.57016767  0.37216623     0.36400
H727        H  0.45065100  0.60737505  0.36962811     0.16770
O728        O  0.43133268  0.57017510  0.42188255    -0.60150
H729        H  0.03523221  0.53313634  0.40961478     0.16780
O730        O  0.05389395  0.57011350  0.35574583    -0.60250
H731        H  0.06806042  0.58741252  0.36583116     0.43780
H732        H  0.41792421  0.55167995  0.41277650     0.43730
C733        C  0.48794533  0.70412530  0.30761767    -0.05330
C734        C  0.00212590  0.72566576  0.33001423    -0.32760
C735        C  0.48991715  0.75693824  0.33441905     0.36490
C736        C  0.46278072  0.76702675  0.31661163    -0.05690
C737        C  0.44890330  0.74566905  0.29394222    -0.32660
C738        C  0.46103816  0.71443581  0.28956493     0.36400
H739        H  0.02277707  0.71819438  0.34412697     0.16770
O740        O  0.00488621  0.77755085  0.35596836    -0.60150
H741        H  0.42799519  0.75293582  0.28010439     0.16780
O742        O  0.44564179  0.69373843  0.26836001    -0.60250
H743        H  0.42937472  0.67928063  0.28254082     0.43780
H744        H  0.02107971  0.79232979  0.34202717     0.43730
C745        C  0.16192411  0.52196267  0.45187669    -0.05330
C746        C  0.15250936  0.54662963  0.47292119    -0.32760
C747        C  0.12424089  0.54111078  0.99438696     0.36490
C748        C  0.10518353  0.51053393  0.49494882    -0.05690
C749        C  0.11573462  0.98553279  0.47498345    -0.32660
C750        C  0.14361563  0.49102574  0.45361576     0.36400
H751        H  0.16675750  0.57035462  0.47225199     0.16770
O752        O  0.11453420  0.56629690  0.01318445    -0.60150
H753        H  0.10195723  0.96153517  0.47553236     0.16780
O754        O  0.15352368  0.96549280  0.43534995    -0.60250
H755        H  0.13752348  0.96356810  0.41758174     0.43780
H756        H  0.12651639  0.56380423  0.03394288     0.43730
C757        C  0.28265074  0.52519644  0.44306066    -0.05330
C758        C  0.28122602  0.50206467  0.47036069    -0.32760
C759        C  0.30886642  0.99715278  0.48873671     0.36490
C760        C  0.33903433  0.51568304  0.48015457    -0.05690
C761        C  0.34051092  0.53925464  0.45298892    -0.32660
C762        C  0.31262291  0.54374935  0.43415697     0.36400
H763        H  0.25840147  0.98742442  0.47746143     0.16770
O764        O  0.30569609  0.97491679  0.01585094    -0.60150
H765        H  0.36338021  0.55378754  0.44602200     0.16780
O766        O  0.31457912  0.56694849  0.40789120    -0.60250
H767        H  0.32504378  0.55586891  0.38926342     0.43780
H768        H  0.30651074  0.95262426  0.00679236     0.43730
C769        C  0.14299858  0.94825196  0.18448181    -0.05330
C770        C  0.14458269  0.96595666  0.15351965    -0.32760
C771        C  0.11678028  0.96816667  0.13486112     0.36490
C772        C  0.08617251  0.95272024  0.14700018    -0.05690
C773        C  0.08431168  0.93458857  0.17786412    -0.32660
C774        C  0.11251207  0.93256572  0.19681212     0.36400
H775        H  0.16767533  0.97845445  0.14364146     0.16770
O776        O  0.12002467  0.98477277  0.10417082    -0.60150
H777        H  0.06090206  0.92274366  0.18763208     0.16780
O778        O  0.11028047  0.91450258  0.22668695    -0.60250
H779        H  0.09981538  0.92899394  0.24251310     0.43780
H780        H  0.12109703  0.00877313  0.10851375     0.43730
C781        C  0.26349017  0.94670815  0.17408865    -0.05330
C782        C  0.26620366  0.96964399  0.14647916    -0.32760
C783        C  0.29483237  0.97291510  0.12579168     0.36490
C784        C  0.32105969  0.95294789  0.13249379    -0.05690
C785        C  0.31803638  0.92924142  0.15943559    -0.32660
C786        C  0.28929482  0.92590288  0.18013620     0.36400
H787        H  0.24652774  0.98594228  0.14171810     0.16770
O788        O  0.29793489  0.49725352  0.10053798    -0.60150
H789        H  0.33841360  0.91409175  0.16500049     0.16780
O790        O  0.28694236  0.90290378  0.20658147    -0.60250
H791        H  0.27586905  0.88261464  0.19817290     0.43780
H792        H  0.28771025  0.48696778  0.08143588     0.43730
C793        C  0.21106478  0.97668021  0.28090705    -0.05330
C794        C  0.19636208  0.95907972  0.30918442    -0.32760
C795        C  0.19978058  0.97141214  0.34059542     0.36490
C796        C  0.21751091  0.50222246  0.34410655    -0.05690
C797        C  0.23241261  0.51978428  0.31583803    -0.32660
C798        C  0.22912956  0.50731474  0.28436810     0.36400
H799        H  0.18269063  0.93537990  0.30693931     0.16770
O800        O  0.18601892  0.95291721  0.36782855    -0.60150
H801        H  0.24608183  0.54347267  0.31812446     0.16780
O802        O  0.24327007  0.52545493  0.25707795    -0.60250
H803        H  0.22543352  0.53864535  0.24832886     0.43780
H804        H  0.20428101  0.94049909  0.37681306     0.43730
C805        C  0.34209798  0.66172268  0.09846571    -0.05330
C806        C  0.32836375  0.63099463  0.11271191    -0.32760
C807        C  0.34646443  0.60241510  0.11202102     0.36490
C808        C  0.37839840  0.60454429  0.09659996    -0.05690
C809        C  0.39189326  0.63522292  0.08259499    -0.32660
C810        C  0.37415714  0.66349853  0.08325695     0.36400
H811        H  0.30366809  0.62917858  0.12422353     0.16770
O812        O  0.33202370  0.57234611  0.12448941    -0.60150
H813        H  0.41623925  0.63718450  0.07021400     0.16780
O814        O  0.38759930  0.69242434  0.06706450    -0.60200
H815        H  0.40655823  0.69981506  0.08016423     0.43780
H816        H  0.33702736  0.57105983  0.14829069     0.43730
C817        C  0.35126934  0.78292399  0.10273868    -0.05330
C818        C  0.38454241  0.78255184  0.09121805    -0.32760
C819        C  0.40578446  0.81135738  0.08981132     0.36490
C820        C  0.39373775  0.84129220  0.09937644    -0.05690
C821        C  0.36113722  0.84149488  0.11251206    -0.32660
C822        C  0.33993351  0.81256253  0.11438747     0.36400
H823        H  0.39377724  0.76024017  0.08167331     0.16770
O824        O  0.43721132  0.81068038  0.07610730    -0.60150
H825        H  0.35171710  0.86453813  0.12018256     0.16780
O826        O  0.30837874  0.81339175  0.12781445    -0.60250
H827        H  0.29673256  0.82765797  0.11198543     0.43780
H828        H  0.45110000  0.80534668  0.09501771     0.43730
C829        C  0.06836347  0.68767284  0.02280524    -0.05330
C830        C  0.07112850  0.66253601  0.50044920    -0.32760
C831        C  0.05045343  0.63323745  0.00443163     0.36490
C832        C  0.02705353  0.62869161  0.03128244    -0.05690
C833        C  0.02369399  0.65407210  0.05313449    -0.32660
C834        C  0.04399687  0.68357397  0.04890076     0.36400
H835        H  0.08990808  0.66530972  0.48043898     0.16770
O836        O  0.05463846  0.60833979  0.48320344    -0.60150
H837        H  0.00631605  0.65039790  0.07433992     0.16780
O838        O  0.04171680  0.70711205  0.07192767    -0.60250
H839        H  0.02311562  0.72033560  0.06517855     0.43780
H840        H  0.03771756  0.61115199  0.46647592     0.43730
C841        C  0.05317289  0.86613240  0.03100105    -0.05330
C842        C  0.06934423  0.85186637  0.05784990    -0.32760
C843        C  0.08795636  0.82424778  0.05413315     0.36490
C844        C  0.09013710  0.80976725  0.02339714    -0.05690
C845        C  0.07527685  0.82465226  0.49611777    -0.32660
C846        C  0.05756011  0.85312092  0.99953844     0.36400
H847        H  0.06700952  0.86172485  0.08214888     0.16770
O848        O  0.10180158  0.81000152  0.08135191    -0.60150
H849        H  0.07674750  0.81366333  0.47231092     0.16780
O850        O  0.04311681  0.86671287  0.47241179    -0.60250
H851        H  0.06038948  0.88257616  0.46132224     0.43780
H852        H  0.12357952  0.82240688  0.08266311     0.43730
C853        C  0.24621441  0.72714398  0.06503477    -0.05330
C854        C  0.21863363  0.70949160  0.08119373    -0.32760
C855        C  0.18676872  0.71330429  0.07020339     0.36490
C856        C  0.18197343  0.73462773  0.04215480    -0.05690
C857        C  0.20964768  0.75179255  0.02554138    -0.32660
C858        C  0.24156178  0.74800749  0.03661551     0.36400
H859        H  0.22169104  0.69358408  0.10320180     0.16770
O860        O  0.16034208  0.69695365  0.08783302    -0.60150
H861        H  0.20648869  0.76813329  0.50386948     0.16780
O862        O  0.26803248  0.76484492  0.01950436    -0.60250
H863        H  0.27661796  0.74876400  0.50416968     0.43780
H864        H  0.15234430  0.71323275  0.10327353     0.43730
C865        C  0.10377151  0.77680144  0.02114244     0.03270
C866        C  0.13694117  0.77212342  0.52778793    -0.12880
C867        C  0.14813390  0.73983242  0.53099556     0.00770
C868        C  0.12588414  0.71234485  0.52675028    -0.11410
C869        C  0.09262746  0.71679250  0.02077223     0.03260
C870        C  0.08189319  0.74905010  0.01738579    -0.10830
H871        H  0.15350917  0.79344727  0.53214838     0.08850
H872        H  0.13400891  0.68734010  0.52990322     0.06380
H873        H  0.05598888  0.75246916  0.01379111     0.06230
C874        C  0.32374482  0.69228525  0.59902453     0.03270
C875        C  0.29248622  0.69391195  0.58553127    -0.12880
C876        C  0.27924463  0.72498373  0.57925542     0.00770
C877        C  0.29791869  0.75424381  0.58611353    -0.11410
C878        C  0.32877046  0.75264375  0.60044745     0.03260
C879        C  0.34035840  0.72149251  0.60848454    -0.10830
H880        H  0.27935914  0.67140572  0.57827487     0.08850
H881        H  0.28871494  0.77819689  0.57949466     0.06380
H882        H  0.36399659  0.72008073  0.61980036     0.06230
C883        C  0.17406448  0.94652365  0.70232797     0.03270
C884        C  0.17662367  0.95717661  0.73471412    -0.12880
C885        C  0.20791684  0.96263621  0.74802519     0.00770
C886        C  0.23648312  0.95694192  0.72887883    -0.11410
C887        C  0.23397972  0.94608020  0.69673593     0.03260
C888        C  0.20286493  0.93998523  0.68412908    -0.10830
H889        H  0.15471589  0.96347501  0.74859391     0.08850
H890        H  0.26067068  0.96243014  0.73840604     0.06380
H891        H  0.20124302  0.93240349  0.65891058     0.06230
C892        C  0.25208659  0.52898650  0.92493704     0.03270
C893        C  0.25064046  0.52117674  0.89152257    -0.12880
C894        C  0.21986902  0.51607840  0.87719445     0.00770
C895        C  0.19077854  0.51980958  0.89626195    -0.11410
C896        C  0.19200350  0.52717345  0.92968625     0.03260
C897        C  0.22267165  0.53300753  0.94341748    -0.10830
H898        H  0.27304223  0.51617458  0.87768287     0.08850
H899        H  0.16700943  0.51478199  0.88566952     0.06380
H900        H  0.22359581  0.53730049  0.96960359     0.06230
C901        C  0.01113102  0.62327473  0.77141220     0.03270
C902        C  0.00561133  0.65716593  0.77397786    -0.12880
C903        C  0.99952950  0.67007897  0.80505087     0.00770
C904        C  0.00063029  0.64906922  0.83378575    -0.11410
C905        C  0.00630365  0.61525456  0.83166120     0.03260
C906        C  0.01174862  0.60261056  0.80051602    -0.10830
H907        H  0.00451499  0.67317966  0.75166973     0.08850
H908        H  0.99480165  0.65845530  0.85778704     0.06380
H909        H  0.01346556  0.57605741  0.79895041     0.06230
C910        C  0.42872735  0.84176843  0.85674631     0.03270
C911        C  0.44047555  0.81007627  0.85264199    -0.12880
C912        C  0.44903580  0.79987274  0.82093441     0.00770
C913        C  0.44508137  0.82141372  0.79312506    -0.11410
C914        C  0.43338426  0.85311627  0.79667269     0.03260
C915        C  0.42510663  0.86294038  0.82850336    -0.10830
H916        H  0.44330739  0.79343350  0.87416353     0.08850
H917        H  0.45234772  0.81392430  0.76869892     0.06380
H918        H  0.41692060  0.88763407  0.83128972     0.06230
O919        O  0.02582574  0.91457970  0.51322622    -0.79990
O920        O  0.43087307  0.96333132  0.66931260    -0.81550
O921        O  0.03361948  0.93428150  0.62730964    -0.78570
O922        O  0.44177207  0.87885498  0.60013005    -0.76950
O923        O  0.39646675  0.89371015  0.57233618    -0.78740
O924        O  0.05534921  0.98733265  0.61386849    -0.79670
O925        O  0.45939463  0.91888519  0.65439946    -0.81000
O926        O  0.01773912  0.89341172  0.56683238    -0.81290
Eu927      Eu  0.48164796  0.92843766  0.59763640     2.39200
O928        O  0.42912932  0.94905860  0.59933319    -0.88800
O929        O  0.01588694  0.96405328  0.56087153    -0.92400
C930        C  0.03081306  0.89313141  0.53718569     1.02290
C931        C  0.44188420  0.93428615  0.67505677     1.02110
C932        C  0.05633406  0.95818382  0.62834137     1.02050
C933        C  0.41212283  0.87325018  0.59021959     0.99910
H934        H  0.49274563  0.98216363  0.63919267     0.29660
O935        O  0.48413806  0.98253865  0.61728806    -1.01190
H936        H  0.45890161  0.90634160  0.53729455     0.29690
O937        O  0.45992633  0.92875795  0.54459408    -1.03730
O938        O  0.39974904  0.55296839  0.61463874    -0.80950
O939        O  0.49334261  0.00333807  0.95762604    -0.80490
O940        O  0.01592168  0.54798823  0.63138817    -0.78930
O941        O  0.35860545  0.94864306  0.58654947    -0.82270
O942        O  0.40955780  0.91722155  0.49668227    -0.80130
O943        O  0.06705103  0.51841722  0.54060344    -0.78770
O944        O  0.48195379  0.58857250  0.52795994    -0.80300
O945        O  0.39120730  0.53330939  0.50109858    -0.82220
O946        O  0.02648194  0.57583728  0.55809711    -0.78960
O947        O  0.36999482  0.97983088  0.51244420    -0.81630
O948        O  0.46300568  0.53940482  0.65374484    -0.77370
O949        O  0.05133406  0.98584974  0.49875955    -0.77400
O950        O  0.46237555  0.92693706  0.97438597    -0.77050
O951        O  0.37417909  0.97884238  0.63033888    -0.80540
O952        O  0.41040366  0.57453479  0.56138234    -0.79970
O953        O  0.46264383  0.54616364  0.97237958    -0.78290
Eu954      Eu  0.43074504  0.00225152  0.61965271     2.39770
Eu955      Eu  0.49411092  0.96478150  0.50787231     2.39570
Eu956      Eu  0.01835293  0.51807335  0.57998516     2.38400
Eu957      Eu  0.40682055  0.94931057  0.54696580     2.39880
Eu958      Eu  0.44354326  0.53818389  0.52998746     2.39790
O959        O  0.44082886  0.98453414  0.50975876    -0.92710
O960        O  0.46516695  0.53800379  0.58301078    -0.91600
C961        C  0.39708290  0.57520958  0.59078256     1.02460
C962        C  0.48019783  0.53130253  0.95134501     1.01180
C963        C  0.49292679  0.55237542  0.65345300     1.00570
C964        C  0.35331756  0.96047209  0.61518784     1.02580
C965        C  0.43293239  0.91278252  0.97499127     1.01500
C966        C  0.07260127  0.00470107  0.51291529     1.00350
C967        C  0.01047590  0.59572078  0.53975594     1.00410
C968        C  0.36874657  0.50938797  0.49895674     1.03020
H969        H  0.01067677  0.53314561  0.51228981     0.30390
O970        O  0.49653379  0.51852277  0.52731838    -1.04870
H971        H  0.38668416  0.51077265  0.56760243     0.32440
O972        O  0.40870949  0.00305904  0.56660976    -1.07430
C973        C  0.43130090  0.87624399  0.76699128    -0.05330
C974        C  0.41766185  0.86408679  0.73836984    -0.32760
C975        C  0.41929531  0.88371712  0.70867426     0.36490
C976        C  0.43405919  0.91635998  0.70736689    -0.05690
C977        C  0.44583245  0.92942327  0.73628002    -0.32660
C978        C  0.44472187  0.90957659  0.76600585     0.36400
H979        H  0.40665024  0.83884375  0.73874024     0.16770
O980        O  0.40679482  0.87068402  0.68081526    -0.60150
H981        H  0.45784343  0.95428680  0.73532656     0.16780
O982        O  0.45952740  0.92199066  0.79299272    -0.60250
H983        H  0.44452876  0.93838296  0.80139203     0.43780
H984        H  0.42388796  0.85642299  0.67235310     0.43730
C985        C  0.42474975  0.85470392  0.89036027    -0.05330
C986        C  0.44930011  0.84931792  0.91310807    -0.32760
C987        C  0.45017369  0.86611596  0.94226511     0.36490
C988        C  0.42676713  0.88933038  0.94898805    -0.05690
C989        C  0.40034282  0.89253280  0.92814281    -0.32660
C990        C  0.39917220  0.87534955  0.89885928     0.36400
H991        H  0.46911984  0.83352161  0.90747619     0.16770
O992        O  0.47509609  0.86092341  0.96338603    -0.60150
H993        H  0.38170139  0.90975013  0.93350765     0.16780
O994        O  0.37309389  0.87884838  0.87870541    -0.60250
H995        H  0.37456953  0.90260349  0.87057983     0.43780
H996        H  0.46540998  0.84435449  0.98076940     0.43730
C997        C  0.01030621  0.60821781  0.73871250    -0.05330
C998        C  0.98520929  0.61618737  0.71732459    -0.32760
C999        C  0.48047610  0.59916766  0.68861592     0.36490
C1000       C  0.50096416  0.57369704  0.68071545    -0.05690
C1001       C  0.02731404  0.56692947  0.70078715    -0.32660
C1002       C  0.03189271  0.58374602  0.72988595     0.36400
H1003       H  0.96811725  0.63461995  0.72364452     0.16770
O1004       O  0.45505184  0.60691315  0.66890488    -0.60150
H1005       H  0.04339483  0.54750722  0.69475721     0.16780
O1006       O  0.05752416  0.57626456  0.74945353    -0.60250
H1007       H  0.05187558  0.55328956  0.75901897     0.43780
H1008       H  0.46522943  0.62281659  0.65116863     0.43730
C1009       C  0.00013053  0.59208523  0.86127574    -0.05330
C1010       C  0.46930503  0.59132892  0.87824709    -0.32760
C1011       C  0.46196776  0.56996797  0.90621470     0.36490
C1012       C  0.48589160  0.54905008  0.91832952    -0.05690
C1013       C  0.01644533  0.54879802  0.90062441    -0.32660
C1014       C  0.02363108  0.57016768  0.87216618     0.36400
H1015       H  0.45065104  0.60737501  0.86962803     0.16770
O1016       O  0.43133272  0.57017507  0.92188248    -0.60150
H1017       H  0.03523227  0.53313638  0.90961475     0.16780
O1018       O  0.05389399  0.57011351  0.85574577    -0.60250
H1019       H  0.06806045  0.58741255  0.86583110     0.43780
H1020       H  0.41792427  0.55167990  0.91277645     0.43730
C1021       C  0.48794534  0.70412527  0.80761766    -0.05330
C1022       C  0.00212593  0.72566573  0.83001418    -0.32760
C1023       C  0.48991718  0.75693819  0.83441907     0.36490
C1024       C  0.46278072  0.76702670  0.81661170    -0.05690
C1025       C  0.44890326  0.74566900  0.79394231    -0.32660
C1026       C  0.46103814  0.71443577  0.78956498     0.36400
H1027       H  0.02277712  0.71819435  0.84412689     0.16770
O1028       O  0.00488627  0.77755080  0.85596834    -0.60150
H1029       H  0.42799512  0.75293576  0.78010452     0.16780
O1030       O  0.44564173  0.69373839  0.76836008    -0.60250
H1031       H  0.42937469  0.67928058  0.78254090     0.43780
H1032       H  0.02107975  0.79232975  0.84202713     0.43730
C1033       C  0.16192420  0.52196269  0.95187668    -0.05330
C1034       C  0.15250948  0.54662966  0.97292119    -0.32760
C1035       C  0.12424076  0.54111073  0.49438696     0.36490
C1036       C  0.10518363  0.51053399  0.99494882    -0.05690
C1037       C  0.11573472  0.98553287  0.97498348    -0.32660
C1038       C  0.14361570  0.49102577  0.95361576     0.36400
H1039       H  0.16675765  0.57035464  0.97225198     0.16770
O1040       O  0.11453404  0.56629684  0.51318445    -0.60150
H1041       H  0.10195733  0.96153523  0.97553241     0.16780
O1042       O  0.15352379  0.96549284  0.93535001    -0.60250
H1043       H  0.13752360  0.96356812  0.91758179     0.43780
H1044       H  0.12651623  0.56380419  0.53394287     0.43730
C1045       C  0.28265082  0.52519640  0.94306058    -0.05330
C1046       C  0.28122612  0.50206461  0.97036060    -0.32760
C1047       C  0.30886649  0.99715282  0.98873671     0.36490
C1048       C  0.33903440  0.51568304  0.98015452    -0.05690
C1049       C  0.34051099  0.53925465  0.95298888    -0.32660
C1050       C  0.31262298  0.54374934  0.93415692     0.36400
H1051       H  0.25840153  0.98742445  0.97746143     0.16770
O1052       O  0.30569603  0.97491673  0.51585093    -0.60150
H1053       H  0.36338027  0.55378757  0.94602198     0.16780
O1054       O  0.31457918  0.56694849  0.90789117    -0.60250
H1055       H  0.32504383  0.55586893  0.88926337     0.43780
H1056       H  0.30651067  0.95262421  0.50679233     0.43730
C1057       C  0.14299850  0.94825192  0.68448182    -0.05330
C1058       C  0.14458260  0.96595659  0.65351964    -0.32760
C1059       C  0.11678020  0.96816656  0.63486110     0.36490
C1060       C  0.08617244  0.95272013  0.64700018    -0.05690
C1061       C  0.08431160  0.93458850  0.67786413    -0.32660
C1062       C  0.11251200  0.93256569  0.69681215     0.36400
H1063       H  0.16767524  0.97845438  0.64364144     0.16770
O1064       O  0.12002458  0.98477263  0.60417079    -0.60150
H1065       H  0.06090198  0.92274359  0.68763211     0.16780
O1066       O  0.11028040  0.91450258  0.72668700    -0.60250
H1067       H  0.09981531  0.92899396  0.74251312     0.43780
H1068       H  0.12109694  0.00877299  0.60851369     0.43730
C1069       C  0.26349008  0.94670809  0.67408863    -0.05330
C1070       C  0.26620359  0.96964393  0.64647913    -0.32760
C1071       C  0.29483229  0.97291501  0.62579164     0.36490
C1072       C  0.32105958  0.95294777  0.63249375    -0.05690
C1073       C  0.31803627  0.92924130  0.65943555    -0.32660
C1074       C  0.28929471  0.92590279  0.68013617     0.36400
H1075       H  0.24652769  0.98594224  0.64171808     0.16770
O1076       O  0.29793481  0.49725339  0.60053794    -0.60150
H1077       H  0.33841347  0.91409160  0.66500043     0.16780
O1078       O  0.28694224  0.90290370  0.70658144    -0.60250
H1079       H  0.27586888  0.88261457  0.69817288     0.43780
H1080       H  0.28771007  0.48696769  0.58143588     0.43730
C1081       C  0.21106475  0.97668023  0.78090703    -0.05330
C1082       C  0.19636207  0.95907975  0.80918441    -0.32760
C1083       C  0.19978060  0.97141216  0.84059541     0.36490
C1084       C  0.21751092  0.50222243  0.84410651    -0.05690
C1085       C  0.23241262  0.51978423  0.81583798    -0.32660
C1086       C  0.22912953  0.50731470  0.78436805     0.36400
H1087       H  0.18269061  0.93537992  0.80693931     0.16770
O1088       O  0.18601895  0.95291723  0.86782854    -0.60150
H1089       H  0.24608185  0.54347261  0.81812440     0.16780
O1090       O  0.24327004  0.52545487  0.75707789    -0.60250
H1091       H  0.22543349  0.53864530  0.74832882     0.43780
H1092       H  0.20428105  0.94049911  0.87681304     0.43730
C1093       C  0.34209787  0.66172251  0.59846543    -0.05330
C1094       C  0.32836357  0.63099447  0.61271160    -0.32760
C1095       C  0.34646428  0.60241495  0.61202087     0.36490
C1096       C  0.37839834  0.60454414  0.59660001    -0.05690
C1097       C  0.39189328  0.63522277  0.58259511    -0.32660
C1098       C  0.37415712  0.66349836  0.58325690     0.36400
H1099       H  0.30366784  0.62917842  0.62422305     0.16770
O1100       O  0.33202349  0.57234595  0.62448918    -0.60150
H1101       H  0.41623934  0.63718435  0.57021427     0.16780
O1102       O  0.38759936  0.69242415  0.56706446    -0.60200
H1103       H  0.40655821  0.69981489  0.58016429     0.43780
H1104       H  0.33702704  0.57105966  0.64829050     0.43730
C1105       C  0.35126910  0.78292387  0.60273804    -0.05330
C1106       C  0.38454231  0.78255167  0.59121788    -0.32760
C1107       C  0.40578436  0.81135721  0.58981135     0.36490
C1108       C  0.39373751  0.84129207  0.59937618    -0.05690
C1109       C  0.36113683  0.84149478  0.61251135    -0.32660
C1110       C  0.33993311  0.81256245  0.61438657     0.36400
H1111       H  0.39377728  0.76023998  0.58167335     0.16770
O1112       O  0.43721139  0.81068016  0.57610778    -0.60150
H1113       H  0.35171660  0.86453806  0.62018165     0.16780
O1114       O  0.30837818  0.81339172  0.62781312    -0.60250
H1115       H  0.29673223  0.82765794  0.61198389     0.43780
H1116       H  0.45109980  0.80534648  0.59501842     0.43730
C1117       C  0.06836326  0.68767274  0.52280504    -0.05330
C1118       C  0.07112871  0.66253616  0.00044934    -0.32760
C1119       C  0.05045326  0.63323729  0.50443157     0.36490
C1120       C  0.02705340  0.62869147  0.53128242    -0.05690
C1121       C  0.02369386  0.65407201  0.55313441    -0.32660
C1122       C  0.04399670  0.68357390  0.54890060     0.36400
H1123       H  0.08990832  0.66530989  0.98043915     0.16770
O1124       O  0.05463864  0.60833999  0.98320346    -0.60150
H1125       H  0.00631594  0.65039783  0.57433986     0.16780
O1126       O  0.04171663  0.70711202  0.57192746    -0.60250
H1127       H  0.02311540  0.72033552  0.56517836     0.43780
H1128       H  0.03771776  0.61115224  0.96647592     0.43730
C1129       C  0.05317279  0.86613229  0.53100093    -0.05330
C1130       C  0.06934414  0.85186620  0.55784974    -0.32760
C1131       C  0.08795627  0.82424762  0.55413293     0.36490
C1132       C  0.09013699  0.80976715  0.52339689    -0.05690
C1133       C  0.07527697  0.82465230  0.99611799    -0.32660
C1134       C  0.05756000  0.85312087  0.49953829     0.36400
H1135       H  0.06700944  0.86172464  0.58214875     0.16770
O1136       O  0.10180150  0.81000131  0.58135166    -0.60150
H1137       H  0.07674763  0.81366333  0.97231116     0.16780
O1138       O  0.04311693  0.86671287  0.97241192    -0.60250
H1139       H  0.06038960  0.88257615  0.96132235     0.43780
H1140       H  0.12357948  0.82240661  0.58266280     0.43730
C1141       C  0.24621434  0.72714363  0.56503393    -0.05330
C1142       C  0.21863354  0.70949156  0.58119315    -0.32760
C1143       C  0.18676860  0.71330432  0.57020291     0.36490
C1144       C  0.18197332  0.73462754  0.54215416    -0.05690
C1145       C  0.20964759  0.75179204  0.52554046    -0.32660
C1146       C  0.24156171  0.74800689  0.53661449     0.36400
H1147       H  0.22169095  0.69358424  0.60320136     0.16770
O1148       O  0.16034195  0.69695399  0.58783278    -0.60150
H1149       H  0.20648880  0.76813398  0.00387053     0.16780
O1150       O  0.26803243  0.76484402  0.51950310    -0.60250
H1151       H  0.27661819  0.74876510  0.00417082     0.43780
H1152       H  0.15234435  0.71323330  0.60327315     0.43730
C1153       C  0.60377137  0.27680133  0.52114209     0.03270
C1154       C  0.63694125  0.27212354  0.02778831    -0.12880
C1155       C  0.64813400  0.23983254  0.03099597     0.00770
C1156       C  0.62588427  0.21234496  0.02675060    -0.11410
C1157       C  0.59262725  0.21679239  0.52077193     0.03260
C1158       C  0.58189300  0.24905001  0.51738554    -0.10830
H1159       H  0.65350922  0.29344740  0.03214882     0.08850
H1160       H  0.63400904  0.18734022  0.02990353     0.06380
H1161       H  0.55598867  0.25246909  0.51379097     0.06230
C1162       C  0.82374494  0.19228540  0.09902490     0.03270
C1163       C  0.79248630  0.19391216  0.08553175    -0.12880
C1164       C  0.77924468  0.22498395  0.07925606     0.00770
C1165       C  0.79791876  0.25424400  0.08611424    -0.11410
C1166       C  0.82877060  0.25264389  0.10044800     0.03260
C1167       C  0.84035858  0.22149263  0.10848492    -0.10830
H1168       H  0.77935921  0.17140596  0.07827530     0.08850
H1169       H  0.78871499  0.27819711  0.07949552     0.06380
H1170       H  0.86399685  0.22008082  0.11980061     0.06230
C1171       C  0.67406455  0.44652370  0.20232795     0.03270
C1172       C  0.67662373  0.45717664  0.23471412    -0.12880
C1173       C  0.70791690  0.46263623  0.24802520     0.00770
C1174       C  0.73648319  0.45694195  0.22887884    -0.11410
C1175       C  0.73397980  0.44608026  0.19673593     0.03260
C1176       C  0.70286501  0.43998530  0.18412907    -0.10830
H1177       H  0.65471596  0.46347502  0.24859391     0.08850
H1178       H  0.76067074  0.46243017  0.23840606     0.06380
H1179       H  0.70124310  0.43240358  0.15891056     0.06230
C1180       C  0.75208652  0.02898652  0.42493710     0.03270
C1181       C  0.75064040  0.02117677  0.39152262    -0.12880
C1182       C  0.71986898  0.01607841  0.37719449     0.00770
C1183       C  0.69077848  0.01980956  0.39626198    -0.11410
C1184       C  0.69200342  0.02717342  0.42968629     0.03260
C1185       C  0.72267157  0.03300752  0.44341753    -0.10830
H1186       H  0.77304219  0.01617461  0.37768294     0.08850
H1187       H  0.66700938  0.01478196  0.38566955     0.06380
H1188       H  0.72359571  0.03730047  0.46960364     0.06230
C1189       C  0.51113105  0.12327477  0.27141226     0.03270
C1190       C  0.50561139  0.15716598  0.27397793    -0.12880
C1191       C  0.49952951  0.17007900  0.30505093     0.00770
C1192       C  0.50063026  0.14906925  0.33378582    -0.11410
C1193       C  0.50630363  0.11525459  0.33166127     0.03260
C1194       C  0.51174862  0.10261060  0.30051609    -0.10830
H1195       H  0.50451508  0.17317971  0.25166980     0.08850
H1196       H  0.49480160  0.15845533  0.35778709     0.06380
H1197       H  0.51346555  0.07605744  0.29895048     0.06230
C1198       C  0.92872729  0.34176844  0.35674623     0.03270
C1199       C  0.94047549  0.31007629  0.35264190    -0.12880
C1200       C  0.94903579  0.29987278  0.32093433     0.00770
C1201       C  0.94508138  0.32141378  0.29312498    -0.11410
C1202       C  0.93338426  0.35311632  0.29667262     0.03260
C1203       C  0.92510659  0.36294041  0.32850329    -0.10830
H1204       H  0.94330730  0.29343350  0.37416344     0.08850
H1205       H  0.95234775  0.31392438  0.26869885     0.06380
H1206       H  0.91692056  0.38763410  0.33128965     0.06230
O1207       O  0.52582582  0.41457979  0.01322627    -0.79990
O1208       O  0.93087312  0.46333148  0.16931259    -0.81550
O1209       O  0.53361956  0.43428166  0.12730966    -0.78570
O1210       O  0.94177220  0.37885514  0.10013013    -0.76950
O1211       O  0.89646685  0.39371026  0.07233627    -0.78740
O1212       O  0.55534930  0.48733279  0.11386848    -0.79670
O1213       O  0.95939470  0.41888537  0.15439948    -0.81000
O1214       O  0.51773920  0.39341186  0.06683244    -0.81290
Eu1215     Eu  0.98164806  0.42843782  0.09763643     2.39200
O1216       O  0.92912941  0.44905875  0.09933320    -0.88800
O1217       O  0.51588703  0.46405340  0.06087153    -0.92400
C1218       C  0.53081314  0.39313153  0.03718575     1.02290
C1219       C  0.94188425  0.43428632  0.17505677     1.02110
C1220       C  0.55633415  0.45818398  0.12834137     1.02050
C1221       C  0.91212296  0.37325032  0.09021970     0.99910
H1222       H  0.99274572  0.48216380  0.13919267     0.29660
O1223       O  0.98413815  0.48253881  0.11728806    -1.01190
H1224       H  0.95890170  0.40634171  0.03729459     0.29690
O1225       O  0.95992642  0.42875806  0.04459411    -1.03730
O1226       O  0.89974913  0.05296854  0.11463869    -0.80950
O1227       O  0.99334254  0.50333802  0.45762604    -0.80490
O1228       O  0.51592176  0.04798839  0.13138815    -0.78930
O1229       O  0.85860554  0.44864318  0.08654948    -0.82270
O1230       O  0.90955790  0.41722162  0.99668230    -0.80130
O1231       O  0.56705111  0.01841737  0.04060342    -0.78770
O1232       O  0.98195388  0.08857261  0.02795990    -0.80300
O1233       O  0.89120737  0.03330944  0.00109855    -0.82220
O1234       O  0.52648202  0.07583743  0.05809708    -0.78960
O1235       O  0.86999492  0.47983098  0.01244420    -0.81630
O1236       O  0.96300577  0.03940495  0.15374483    -0.77370
O1237       O  0.55133413  0.48584983  0.99875954    -0.77400
O1238       O  0.96237545  0.42693700  0.47438592    -0.77050
O1239       O  0.87417917  0.47884254  0.13033887    -0.80540
O1240       O  0.91040373  0.07453492  0.06138228    -0.79970
O1241       O  0.96264375  0.04616359  0.47237962    -0.78290
Eu1242     Eu  0.93074512  0.50225168  0.11965269     2.39770
Eu1243     Eu  0.99411101  0.46478159  0.00787232     2.39570
Eu1244     Eu  0.51835302  0.01807352  0.07998515     2.38400
Eu1245     Eu  0.90682063  0.44931067  0.04696582     2.39880
Eu1246     Eu  0.94354334  0.03818398  0.02998743     2.39790
O1247       O  0.94082895  0.48453424  0.00975878    -0.92710
O1248       O  0.96516702  0.03800392  0.08301075    -0.91600
C1249       C  0.89708298  0.07520972  0.09078251     1.02460
C1250       C  0.98019776  0.03130249  0.45134504     1.01180
C1251       C  0.99292687  0.05237555  0.15345299     1.00570
C1252       C  0.85331764  0.46047224  0.11518785     1.02580
C1253       C  0.93293229  0.41278248  0.47499121     1.01500
C1254       C  0.57260135  0.50470117  0.01291527     1.00350
C1255       C  0.51047598  0.09572092  0.03975590     1.00410
C1256       C  0.86874665  0.00938801  0.99895672     1.03020
H1257       H  0.51067684  0.03314572  0.01228979     0.30390
O1258       O  0.99653386  0.01852287  0.02731836    -1.04870
H1259       H  0.88668424  0.01077274  0.06760242     0.32440
O1260       O  0.90870958  0.50305917  0.06660974    -1.07430
C1261       C  0.93130093  0.37624407  0.26699123    -0.05330
C1262       C  0.91766188  0.36408691  0.23836977    -0.32760
C1263       C  0.91929534  0.38371727  0.20867421     0.36490
C1264       C  0.93405922  0.41636013  0.20736688    -0.05690
C1265       C  0.94583248  0.42942339  0.23628003    -0.32660
C1266       C  0.94472189  0.40957667  0.26600583     0.36400
H1267       H  0.90665027  0.33884387  0.23874015     0.16770
O1268       O  0.90679485  0.37068420  0.18081520    -0.60150
H1269       H  0.95784346  0.45428691  0.23532659     0.16780
O1270       O  0.95952742  0.42199071  0.29299272    -0.60250
H1271       H  0.94452877  0.43838300  0.30139204     0.43780
H1272       H  0.92388798  0.35642316  0.17235304     0.43730
C1273       C  0.92474966  0.35470392  0.39036019    -0.05330
C1274       C  0.94930000  0.34931789  0.41310801    -0.32760
C1275       C  0.95017357  0.36611592  0.44226505     0.36490
C1276       C  0.92676703  0.38933035  0.44898798    -0.05690
C1277       C  0.90034272  0.39253279  0.42814274    -0.32660
C1278       C  0.89917211  0.37534955  0.39885920     0.36400
H1279       H  0.96911974  0.33352157  0.40747613     0.16770
O1280       O  0.97509596  0.36092335  0.46338598    -0.60150
H1281       H  0.88170130  0.40975012  0.43350757     0.16780
O1282       O  0.87309382  0.37884839  0.37870531    -0.60250
H1283       H  0.87456946  0.40260351  0.37057974     0.43780
H1284       H  0.96540984  0.34435443  0.48076935     0.43730
C1285       C  0.51030626  0.10821787  0.23871256    -0.05330
C1286       C  0.48520938  0.11618747  0.21732462    -0.32760
C1287       C  0.98047620  0.09916778  0.18861591     0.36490
C1288       C  0.00096424  0.07369714  0.18071545    -0.05690
C1289       C  0.52731410  0.06692954  0.20078719    -0.32660
C1290       C  0.53189275  0.08374606  0.22988602     0.36400
H1291       H  0.46811735  0.13462007  0.22364455     0.16770
O1292       O  0.95505198  0.10691331  0.16890484    -0.60150
H1293       H  0.54339486  0.04750728  0.19475726     0.16780
O1294       O  0.55752416  0.07626455  0.24945363    -0.60250
H1295       H  0.55187554  0.05328955  0.25901904     0.43780
H1296       H  0.96522960  0.12281676  0.15116862     0.43730
C1297       C  0.50013049  0.09208525  0.36127580    -0.05330
C1298       C  0.96930499  0.09132895  0.37824716    -0.32760
C1299       C  0.96196771  0.06996800  0.40621476     0.36490
C1300       C  0.98589154  0.04905007  0.41832956    -0.05690
C1301       C  0.51644526  0.04879800  0.40062445    -0.32660
C1302       C  0.52363103  0.07016768  0.37216624     0.36400
H1303       H  0.95065100  0.10737506  0.36962812     0.16770
O1304       O  0.93133268  0.07017511  0.42188255    -0.60150
H1305       H  0.53523220  0.03313634  0.40961478     0.16780
O1306       O  0.55389394  0.07011351  0.35574583    -0.60250
H1307       H  0.56806041  0.08741252  0.36583116     0.43780
H1308       H  0.91792421  0.05167996  0.41277651     0.43730
C1309       C  0.98794533  0.20412530  0.30761767    -0.05330
C1310       C  0.50212591  0.22566577  0.33001423    -0.32760
C1311       C  0.98991714  0.25693824  0.33441905     0.36490
C1312       C  0.96278072  0.26702675  0.31661163    -0.05690
C1313       C  0.94890329  0.24566905  0.29394222    -0.32660
C1314       C  0.96103816  0.21443581  0.28956494     0.36400
H1315       H  0.52277707  0.21819439  0.34412697     0.16770
O1316       O  0.50488622  0.27755086  0.35596835    -0.60150
H1317       H  0.92799518  0.25293581  0.28010439     0.16780
O1318       O  0.94564178  0.19373843  0.26836002    -0.60250
H1319       H  0.92937472  0.17928062  0.28254082     0.43780
H1320       H  0.52107973  0.29232981  0.34202716     0.43730
C1321       C  0.66192412  0.02196264  0.45187670    -0.05330
C1322       C  0.65250938  0.04662961  0.47292121    -0.32760
C1323       C  0.62424086  0.04111083  0.99438692     0.36490
C1324       C  0.60518354  0.01053391  0.49494883    -0.05690
C1325       C  0.61573464  0.48553280  0.47498348    -0.32660
C1326       C  0.64361563  0.99102572  0.45361577     0.36400
H1327       H  0.66675753  0.07035459  0.47225201     0.16770
O1328       O  0.61453415  0.06629696  0.01318440    -0.60150
H1329       H  0.60195727  0.46153516  0.47553240     0.16780
O1330       O  0.65352373  0.46549280  0.43535000    -0.60250
H1331       H  0.63752353  0.46356808  0.41758179     0.43780
H1332       H  0.62651634  0.06380431  0.03394282     0.43730
C1333       C  0.78265074  0.02519641  0.44306065    -0.05330
C1334       C  0.78122604  0.00206460  0.47036065    -0.32760
C1335       C  0.80886640  0.49715283  0.48873674     0.36490
C1336       C  0.83903433  0.01568300  0.48015456    -0.05690
C1337       C  0.84051091  0.03925464  0.45298894    -0.32660
C1338       C  0.81262290  0.04374935  0.43415699     0.36400
H1339       H  0.75840144  0.48742449  0.47746148     0.16770
O1340       O  0.80569612  0.47491683  0.01585093    -0.60150
H1341       H  0.86338020  0.05378756  0.44602205     0.16780
O1342       O  0.81457910  0.06694852  0.40789125    -0.60250
H1343       H  0.82504375  0.05586898  0.38926346     0.43780
H1344       H  0.80651076  0.45262429  0.00679235     0.43730
C1345       C  0.64299858  0.44825200  0.18448181    -0.05330
C1346       C  0.64458269  0.46595670  0.15351965    -0.32760
C1347       C  0.61678029  0.46816671  0.13486111     0.36490
C1348       C  0.58617252  0.45272028  0.14700018    -0.05690
C1349       C  0.58431168  0.43458861  0.17786411    -0.32660
C1350       C  0.61251208  0.43256577  0.19681212     0.36400
H1351       H  0.66767533  0.47845449  0.14364145     0.16770
O1352       O  0.62002467  0.48477281  0.10417081    -0.60150
H1353       H  0.56090206  0.42274370  0.18763208     0.16780
O1354       O  0.61028047  0.41450263  0.22668695    -0.60250
H1355       H  0.59981538  0.42899399  0.24251310     0.43780
H1356       H  0.62109703  0.50877317  0.10851374     0.43730
C1357       C  0.76349017  0.44670817  0.17408863    -0.05330
C1358       C  0.76620365  0.46964401  0.14647913    -0.32760
C1359       C  0.79483236  0.47291511  0.12579165     0.36490
C1360       C  0.82105968  0.45294790  0.13249376    -0.05690
C1361       C  0.81803638  0.42924144  0.15943557    -0.32660
C1362       C  0.78929482  0.42590290  0.18013619     0.36400
H1363       H  0.74652774  0.48594229  0.14171807     0.16770
O1364       O  0.79793488  0.99725349  0.10053797    -0.60150
H1365       H  0.83841360  0.41409177  0.16500047     0.16780
O1366       O  0.78694237  0.40290382  0.20658147    -0.60250
H1367       H  0.77586905  0.38261467  0.19817290     0.43780
H1368       H  0.78771019  0.98696776  0.08143589     0.43730
C1369       C  0.71106480  0.47668024  0.28090704    -0.05330
C1370       C  0.69636208  0.45907975  0.30918441    -0.32760
C1371       C  0.69978058  0.47141217  0.34059541     0.36490
C1372       C  0.71751091  0.00222244  0.34410655    -0.05690
C1373       C  0.73241262  0.01978425  0.31583803    -0.32660
C1374       C  0.72912958  0.00731471  0.28436810     0.36400
H1375       H  0.68269062  0.43537993  0.30693929     0.16770
O1376       O  0.68601889  0.45291724  0.36782853    -0.60150
H1377       H  0.74608183  0.04347264  0.31812446     0.16780
O1378       O  0.74327009  0.02545489  0.25707796    -0.60250
H1379       H  0.72543354  0.03864531  0.24832886     0.43780
H1380       H  0.70428098  0.44049912  0.37681305     0.43730
C1381       C  0.84209797  0.16172266  0.09846563    -0.05330
C1382       C  0.82836372  0.13099461  0.11271182    -0.32760
C1383       C  0.84646441  0.10241509  0.11202097     0.36490
C1384       C  0.87839841  0.10454428  0.09659998    -0.05690
C1385       C  0.89189329  0.13522291  0.08259502    -0.32660
C1386       C  0.87415716  0.16349852  0.08325695     0.36400
H1387       H  0.80366804  0.12917856  0.12422339     0.16770
O1388       O  0.83202366  0.07234609  0.12448933    -0.60150
H1389       H  0.91623930  0.13718449  0.07021408     0.16780
O1390       O  0.88759935  0.19242432  0.06706450    -0.60200
H1391       H  0.90655825  0.19981504  0.08016427     0.43780
H1392       H  0.83702728  0.07105980  0.14829062     0.43730
C1393       C  0.85126928  0.28292399  0.10273850    -0.05330
C1394       C  0.88454239  0.28255183  0.09121800    -0.32760
C1395       C  0.90578443  0.31135737  0.08981132     0.36490
C1396       C  0.89373768  0.34129221  0.09937635    -0.05690
C1397       C  0.86113711  0.34149489  0.11251185    -0.32660
C1398       C  0.83993341  0.31256254  0.11438722     0.36400
H1399       H  0.89377726  0.26024015  0.08167332     0.16770
O1400       O  0.93721134  0.31068036  0.07610742    -0.60150
H1401       H  0.85171696  0.36453815  0.12018230     0.16780
O1402       O  0.80837859  0.31339177  0.12781408    -0.60250
H1403       H  0.79673248  0.32765799  0.11198500     0.43780
H1404       H  0.95109995  0.30534667  0.09501789     0.43730
C1405       C  0.56836341  0.18767285  0.02280518    -0.05330
C1406       C  0.57112846  0.16253603  0.50044915    -0.32760
C1407       C  0.55045337  0.13323746  0.00443158     0.36490
C1408       C  0.52705347  0.12869162  0.03128241    -0.05690
C1409       C  0.52369394  0.15407212  0.05313445    -0.32660
C1410       C  0.54399682  0.18357399  0.04890071     0.36400
H1411       H  0.58990802  0.16530974  0.48043892     0.16770
O1412       O  0.55463839  0.10833981  0.48320339    -0.60150
H1413       H  0.50631600  0.15039792  0.07433988     0.16780
O1414       O  0.54171675  0.20711207  0.07192761    -0.60250
H1415       H  0.52311557  0.22033562  0.06517850     0.43780
H1416       H  0.53771746  0.11115202  0.46647590     0.43730
C1417       C  0.55317288  0.36613240  0.03100104    -0.05330
C1418       C  0.56934423  0.35186636  0.05784988    -0.32760
C1419       C  0.58795635  0.32424777  0.05413311     0.36490
C1420       C  0.59013709  0.30976725  0.02339710    -0.05690
C1421       C  0.57527685  0.32465226  0.49611775    -0.32660
C1422       C  0.55756010  0.35312094  0.99953842     0.36400
H1423       H  0.56700951  0.36172483  0.08214886     0.16770
O1424       O  0.60180157  0.31000149  0.08135187    -0.60150
H1425       H  0.57674752  0.31366335  0.47231089     0.16780
O1426       O  0.54311682  0.36671289  0.47241178    -0.60250
H1427       H  0.56038950  0.38257618  0.46132224     0.43780
H1428       H  0.62357952  0.32240684  0.08266305     0.43730
C1429       C  0.74621440  0.22714390  0.06503456    -0.05330
C1430       C  0.71863362  0.20949160  0.08119358    -0.32760
C1431       C  0.68676870  0.21330431  0.07020327     0.36490
C1432       C  0.68197341  0.23462770  0.04215465    -0.05690
C1433       C  0.70964766  0.25179243  0.02554115    -0.32660
C1434       C  0.74156177  0.24800735  0.03661524     0.36400
H1435       H  0.72169103  0.19358413  0.10320169     0.16770
O1436       O  0.66034205  0.19695374  0.08783296    -0.60150
H1437       H  0.70648869  0.26813328  0.50386944     0.16780
O1438       O  0.76803247  0.26484471  0.01950404    -0.60250
H1439       H  0.77661796  0.24876397  0.50416965     0.43780
H1440       H  0.65234433  0.21323290  0.10327344     0.43730
C1441       C  0.60377149  0.27680144  0.02114237     0.03270
C1442       C  0.63694116  0.27212342  0.52778790    -0.12880
C1443       C  0.64813389  0.23983241  0.53099553     0.00770
C1444       C  0.62588413  0.21234484  0.52675024    -0.11410
C1445       C  0.59262741  0.21679250  0.02077217     0.03260
C1446       C  0.58189315  0.24905011  0.01738574    -0.10830
H1447       H  0.65350917  0.29344727  0.53214836     0.08850
H1448       H  0.63400890  0.18734009  0.52990318     0.06380
H1449       H  0.55598884  0.25246918  0.01379108     0.06230
C1450       C  0.82374480  0.19228524  0.59902452     0.03270
C1451       C  0.79248621  0.19391194  0.58553125    -0.12880
C1452       C  0.77924462  0.22498372  0.57925539     0.00770
C1453       C  0.79791868  0.25424381  0.58611350    -0.11410
C1454       C  0.82877045  0.25264375  0.60044742     0.03260
C1455       C  0.84035838  0.22149251  0.60848453    -0.10830
H1456       H  0.77935914  0.17140572  0.57827485     0.08850
H1457       H  0.78871493  0.27819689  0.57949463     0.06380
H1458       H  0.86399658  0.22008073  0.61980036     0.06230
C1459       C  0.67406447  0.44652360  0.70232796     0.03270
C1460       C  0.67662366  0.45717658  0.73471411    -0.12880
C1461       C  0.70791683  0.46263618  0.74802518     0.00770
C1462       C  0.73648311  0.45694189  0.72887883    -0.11410
C1463       C  0.73397972  0.44608017  0.69673593     0.03260
C1464       C  0.70286492  0.43998519  0.68412908    -0.10830
H1465       H  0.65471588  0.46347497  0.74859390     0.08850
H1466       H  0.76067067  0.46243012  0.73840604     0.06380
H1467       H  0.70124302  0.43240344  0.65891058     0.06230
C1468       C  0.75208660  0.02898653  0.92493706     0.03270
C1469       C  0.75064046  0.02117677  0.89152258    -0.12880
C1470       C  0.71986903  0.01607843  0.87719445     0.00770
C1471       C  0.69077855  0.01980961  0.89626194    -0.11410
C1472       C  0.69200349  0.02717349  0.92968625     0.03260
C1473       C  0.72267165  0.03300756  0.94341749    -0.10830
H1474       H  0.77304224  0.01617460  0.87768289     0.08850
H1475       H  0.66700944  0.01478203  0.88566952     0.06380
H1476       H  0.72359579  0.03730053  0.96960360     0.06230
C1477       C  0.51113102  0.12327473  0.77141221     0.03270
C1478       C  0.50561133  0.15716594  0.77397787    -0.12880
C1479       C  0.49952950  0.17007897  0.80505088     0.00770
C1480       C  0.50063029  0.14906922  0.83378576    -0.11410
C1481       C  0.50630365  0.11525456  0.83166121     0.03260
C1482       C  0.51174862  0.10261057  0.80051603    -0.10830
H1483       H  0.50451499  0.17317965  0.75166974     0.08850
H1484       H  0.49480166  0.15845530  0.85778704     0.06380
H1485       H  0.51346556  0.07605741  0.79895043     0.06230
C1486       C  0.92872736  0.34176843  0.85674630     0.03270
C1487       C  0.94047556  0.31007627  0.85264198    -0.12880
C1488       C  0.94903581  0.29987274  0.82093440     0.00770
C1489       C  0.94508137  0.32141373  0.79312505    -0.11410
C1490       C  0.93338426  0.35311627  0.79667268     0.03260
C1491       C  0.92510663  0.36294038  0.82850335    -0.10830
H1492       H  0.94330740  0.29343350  0.87416352     0.08850
H1493       H  0.95234772  0.31392431  0.76869891     0.06380
H1494       H  0.91692060  0.38763407  0.83128971     0.06230
O1495       O  0.52582574  0.41457970  0.51322622    -0.79990
O1496       O  0.93087307  0.46333132  0.66931259    -0.81550
O1497       O  0.53361946  0.43428147  0.62730964    -0.78570
O1498       O  0.94177206  0.37885498  0.60013004    -0.76950
O1499       O  0.89646674  0.39371015  0.57233617    -0.78740
O1500       O  0.55534921  0.48733260  0.61386850    -0.79670
O1501       O  0.95939462  0.41888520  0.65439946    -0.81000
O1502       O  0.51773910  0.39341171  0.56683237    -0.81290
Eu1503     Eu  0.98164796  0.42843765  0.59763640     2.39200
O1504       O  0.92912931  0.44905861  0.59933318    -0.88800
O1505       O  0.51588693  0.46405327  0.56087153    -0.92400
C1506       C  0.53081304  0.39313140  0.53718568     1.02290
C1507       C  0.94188419  0.43428616  0.67505676     1.02110
C1508       C  0.55633405  0.45818378  0.62834137     1.02050
C1509       C  0.91212281  0.37325019  0.59021958     0.99910
H1510       H  0.99274563  0.48216362  0.63919266     0.29660
O1511       O  0.98413806  0.48253864  0.61728805    -1.01190
H1512       H  0.95890159  0.40634160  0.53729454     0.29690
O1513       O  0.95992632  0.42875795  0.54459407    -1.03730
O1514       O  0.89974904  0.05296840  0.61463873    -0.80950
O1515       O  0.99334262  0.50333807  0.95762604    -0.80490
O1516       O  0.51592167  0.04798823  0.63138817    -0.78930
O1517       O  0.85860545  0.44864306  0.58654947    -0.82270
O1518       O  0.90955779  0.41722156  0.49668226    -0.80130
O1519       O  0.56705103  0.01841722  0.54060345    -0.78770
O1520       O  0.98195376  0.08857250  0.52795992    -0.80300
O1521       O  0.89120729  0.03330936  0.50109858    -0.82220
O1522       O  0.52648193  0.07583729  0.55809711    -0.78960
O1523       O  0.86999481  0.47983090  0.51244420    -0.81630
O1524       O  0.96300569  0.03940483  0.65374484    -0.77370
O1525       O  0.55133406  0.48584975  0.49875955    -0.77400
O1526       O  0.96237556  0.42693707  0.97438596    -0.77050
O1527       O  0.87417909  0.47884239  0.63033887    -0.80540
O1528       O  0.91040365  0.07453478  0.56138233    -0.79970
O1529       O  0.96264384  0.04616365  0.97237959    -0.78290
Eu1530     Eu  0.93074504  0.50225153  0.61965270     2.39770
Eu1531     Eu  0.99411092  0.46478150  0.50787230     2.39570
Eu1532     Eu  0.51835293  0.01807336  0.57998517     2.38400
Eu1533     Eu  0.90682054  0.44931057  0.54696579     2.39880
Eu1534     Eu  0.94354325  0.03818388  0.52998745     2.39790
O1535       O  0.94082885  0.48453414  0.50975876    -0.92710
O1536       O  0.96516694  0.03800380  0.58301077    -0.91600
C1537       C  0.89708289  0.07520958  0.59078256     1.02460
C1538       C  0.98019784  0.03130253  0.95134502     1.01180
C1539       C  0.99292679  0.05237544  0.65345300     1.00570
C1540       C  0.85331755  0.46047210  0.61518784     1.02580
C1541       C  0.93293240  0.41278254  0.97499125     1.01500
C1542       C  0.57260127  0.50470108  0.51291528     1.00350
C1543       C  0.51047589  0.09572078  0.53975594     1.00410
C1544       C  0.86874657  0.00938793  0.49895674     1.03020
H1545       H  0.51067677  0.03314561  0.51228981     0.30390
O1546       O  0.99653378  0.01852278  0.52731837    -1.04870
H1547       H  0.88668415  0.01077264  0.56760244     0.32440
O1548       O  0.90870949  0.50305905  0.56660975    -1.07430
C1549       C  0.93130090  0.37624399  0.76699127    -0.05330
C1550       C  0.91766184  0.36408679  0.73836984    -0.32760
C1551       C  0.91929530  0.38371713  0.70867425     0.36490
C1552       C  0.93405919  0.41635999  0.70736689    -0.05690
C1553       C  0.94583245  0.42942328  0.73628001    -0.32660
C1554       C  0.94472187  0.40957659  0.76600584     0.36400
H1555       H  0.90665023  0.33884376  0.73874024     0.16770
O1556       O  0.90679480  0.37068403  0.68081526    -0.60150
H1557       H  0.95784344  0.45428680  0.73532655     0.16780
O1558       O  0.95952741  0.42199066  0.79299271    -0.60250
H1559       H  0.94452876  0.43838296  0.80139202     0.43780
H1560       H  0.92388794  0.35642300  0.67235310     0.43730
C1561       C  0.92474975  0.35470393  0.89036026    -0.05330
C1562       C  0.94930012  0.34931793  0.91310805    -0.32760
C1563       C  0.95017371  0.36611599  0.94226508     0.36490
C1564       C  0.92676714  0.38933040  0.94898803    -0.05690
C1565       C  0.90034282  0.39253280  0.92814280    -0.32660
C1566       C  0.89917220  0.37534955  0.89885927     0.36400
H1567       H  0.96911987  0.33352163  0.90747616     0.16770
O1568       O  0.97509612  0.36092345  0.96338600    -0.60150
H1569       H  0.88170138  0.40975012  0.93350764     0.16780
O1570       O  0.87309388  0.37884835  0.87870541    -0.60250
H1571       H  0.87456951  0.40260347  0.87057982     0.43780
H1572       H  0.96541002  0.34435453  0.98076938     0.43730
C1573       C  0.51030620  0.10821781  0.73871251    -0.05330
C1574       C  0.48520929  0.11618737  0.71732459    -0.32760
C1575       C  0.98047612  0.09916769  0.68861590     0.36490
C1576       C  0.00096417  0.07369705  0.68071544    -0.05690
C1577       C  0.52731404  0.06692946  0.70078716    -0.32660
C1578       C  0.53189271  0.08374601  0.72988596     0.36400
H1579       H  0.46811725  0.13461996  0.72364453     0.16770
O1580       O  0.95505188  0.10691320  0.66890485    -0.60150
H1581       H  0.54339482  0.04750721  0.69475722     0.16780
O1582       O  0.55752415  0.07626455  0.74945355    -0.60250
H1583       H  0.55187557  0.05328955  0.75901898     0.43780
H1584       H  0.96522949  0.12281663  0.65116861     0.43730
C1585       C  0.50013052  0.09208523  0.86127575    -0.05330
C1586       C  0.96930504  0.09132893  0.87824711    -0.32760
C1587       C  0.96196776  0.06996799  0.90621472     0.36490
C1588       C  0.98589161  0.04905009  0.91832953    -0.05690
C1589       C  0.51644531  0.04879801  0.90062442    -0.32660
C1590       C  0.52363107  0.07016768  0.87216619     0.36400
H1591       H  0.95065104  0.10737502  0.86962805     0.16770
O1592       O  0.93133273  0.07017509  0.92188250    -0.60150
H1593       H  0.53523226  0.03313638  0.90961476     0.16780
O1594       O  0.55389399  0.07011351  0.85574579    -0.60250
H1595       H  0.56806045  0.08741254  0.86583111     0.43780
H1596       H  0.91792427  0.05167993  0.91277647     0.43730
C1597       C  0.98794535  0.20412528  0.80761766    -0.05330
C1598       C  0.50212593  0.22566573  0.83001419    -0.32760
C1599       C  0.98991718  0.25693820  0.83441906     0.36490
C1600       C  0.96278073  0.26702671  0.81661169    -0.05690
C1601       C  0.94890327  0.24566901  0.79394229    -0.32660
C1602       C  0.96103815  0.21443578  0.78956497     0.36400
H1603       H  0.52277712  0.21819436  0.84412689     0.16770
O1604       O  0.50488625  0.27755080  0.85596834    -0.60150
H1605       H  0.92799514  0.25293577  0.78010450     0.16780
O1606       O  0.94564175  0.19373840  0.76836006    -0.60250
H1607       H  0.92937470  0.17928059  0.78254088     0.43780
H1608       H  0.52107973  0.29232976  0.84202713     0.43730
C1609       C  0.66192419  0.02196273  0.95187666    -0.05330
C1610       C  0.65250945  0.04662971  0.97292116    -0.32760
C1611       C  0.62424078  0.04111071  0.49438698     0.36490
C1612       C  0.60518361  0.01053403  0.99494880    -0.05690
C1613       C  0.61573470  0.48553286  0.97498345    -0.32660
C1614       C  0.64361570  0.99102580  0.95361575     0.36400
H1615       H  0.66675761  0.07035469  0.97225194     0.16770
O1616       O  0.61453407  0.06629682  0.51318447    -0.60150
H1617       H  0.60195730  0.46153523  0.97553237     0.16780
O1618       O  0.65352376  0.46549283  0.93534997    -0.60250
H1619       H  0.63752356  0.46356812  0.91758176     0.43780
H1620       H  0.62651626  0.06380416  0.53394290     0.43730
C1621       C  0.78265082  0.02519643  0.94306060    -0.05330
C1622       C  0.78122611  0.00206466  0.97036064    -0.32760
C1623       C  0.80886651  0.49715285  0.98873669     0.36490
C1624       C  0.83903441  0.01568306  0.98015454    -0.05690
C1625       C  0.84051100  0.03925466  0.95298888    -0.32660
C1626       C  0.81262299  0.04374935  0.93415692     0.36400
H1627       H  0.75840156  0.48742446  0.97746142     0.16770
O1628       O  0.80569600  0.47491681  0.51585098    -0.60150
H1629       H  0.86338029  0.05378756  0.94602196     0.16780
O1630       O  0.81457920  0.06694848  0.90789115    -0.60250
H1631       H  0.82504385  0.05586891  0.88926337     0.43780
H1632       H  0.80651062  0.45262428  0.50679240     0.43730
C1633       C  0.64299849  0.44825187  0.68448181    -0.05330
C1634       C  0.64458260  0.46595651  0.65351962    -0.32760
C1635       C  0.61678019  0.46816648  0.63486108     0.36490
C1636       C  0.58617242  0.45272008  0.64700017    -0.05690
C1637       C  0.58431159  0.43458846  0.67786414    -0.32660
C1638       C  0.61251199  0.43256565  0.69681215     0.36400
H1639       H  0.66767524  0.47845429  0.64364140     0.16770
O1640       O  0.62002457  0.48477253  0.60417076    -0.60150
H1641       H  0.56090196  0.42274358  0.68763213     0.16780
O1642       O  0.61028038  0.41450257  0.72668701    -0.60250
H1643       H  0.59981529  0.42899396  0.74251312     0.43780
H1644       H  0.62109694  0.50877290  0.60851364     0.43730
C1645       C  0.76349008  0.44670807  0.67408863    -0.05330
C1646       C  0.76620359  0.46964394  0.64647915    -0.32760
C1647       C  0.79483229  0.47291503  0.62579167     0.36490
C1648       C  0.82105958  0.45294777  0.63249375    -0.05690
C1649       C  0.81803626  0.42924128  0.65943552    -0.32660
C1650       C  0.78929470  0.42590276  0.68013615     0.36400
H1651       H  0.74652769  0.48594226  0.64171812     0.16770
O1652       O  0.79793481  0.99725337  0.60053792    -0.60150
H1653       H  0.83841346  0.41409157  0.66500039     0.16780
O1654       O  0.78694223  0.40290364  0.70658140    -0.60250
H1655       H  0.77586886  0.38261452  0.69817282     0.43780
H1656       H  0.78771012  0.98696763  0.58143584     0.43730
C1657       C  0.71106474  0.47668021  0.78090702    -0.05330
C1658       C  0.69636204  0.45907973  0.80918440    -0.32760
C1659       C  0.69978059  0.47141214  0.84059540     0.36490
C1660       C  0.71751093  0.00222246  0.84410651    -0.05690
C1661       C  0.73241262  0.01978427  0.81583798    -0.32660
C1662       C  0.72912953  0.00731474  0.78436806     0.36400
H1663       H  0.68269058  0.43537991  0.80693930     0.16770
O1664       O  0.68601892  0.45291722  0.86782854    -0.60150
H1665       H  0.74608185  0.04347266  0.81812440     0.16780
O1666       O  0.74327003  0.02545492  0.75707790    -0.60250
H1667       H  0.72543347  0.03864535  0.74832883     0.43780
H1668       H  0.70428101  0.44049909  0.87681303     0.43730
C1669       C  0.84209786  0.16172251  0.59846542    -0.05330
C1670       C  0.82836356  0.13099446  0.61271159    -0.32760
C1671       C  0.84646427  0.10241495  0.61202086     0.36490
C1672       C  0.87839833  0.10454414  0.59660001    -0.05690
C1673       C  0.89189327  0.13522277  0.58259510    -0.32660
C1674       C  0.87415712  0.16349836  0.58325690     0.36400
H1675       H  0.80366783  0.12917842  0.62422304     0.16770
O1676       O  0.83202348  0.07234595  0.62448917    -0.60150
H1677       H  0.91623933  0.13718434  0.57021427     0.16780
O1678       O  0.88759936  0.19242415  0.56706446    -0.60200
H1679       H  0.90655820  0.19981489  0.58016428     0.43780
H1680       H  0.83702702  0.07105966  0.64829049     0.43730
C1681       C  0.85126908  0.28292387  0.60273802    -0.05330
C1682       C  0.88454230  0.28255167  0.59121788    -0.32760
C1683       C  0.90578435  0.31135721  0.58981135     0.36490
C1684       C  0.89373750  0.34129208  0.59937617    -0.05690
C1685       C  0.86113680  0.34149479  0.61251133    -0.32660
C1686       C  0.83993309  0.31256245  0.61438654     0.36400
H1687       H  0.89377727  0.26023997  0.58167336     0.16770
O1688       O  0.93721139  0.31068016  0.57610780    -0.60150
H1689       H  0.85171657  0.36453807  0.62018161     0.16780
O1690       O  0.80837815  0.31339173  0.62781307    -0.60250
H1691       H  0.79673221  0.32765795  0.61198383     0.43780
H1692       H  0.95109978  0.30534648  0.59501845     0.43730
C1693       C  0.56836325  0.18767274  0.52280502    -0.05330
C1694       C  0.57112865  0.16253617  0.00044929    -0.32760
C1695       C  0.55045322  0.13323730  0.50443154     0.36490
C1696       C  0.52705339  0.12869148  0.53128242    -0.05690
C1697       C  0.52369388  0.15407200  0.55313443    -0.32660
C1698       C  0.54399673  0.18357389  0.54890060     0.36400
H1699       H  0.58990825  0.16530989  0.98043909     0.16770
O1700       O  0.55463857  0.10833999  0.98320342    -0.60150
H1701       H  0.50631599  0.15039781  0.57433990     0.16780
O1702       O  0.54171669  0.20711200  0.57192748    -0.60250
H1703       H  0.52311546  0.22033551  0.56517840     0.43780
H1704       H  0.53771769  0.11115224  0.96647589     0.43730
C1705       C  0.55317278  0.36613228  0.53100092    -0.05330
C1706       C  0.56934411  0.35186618  0.55784974    -0.32760
C1707       C  0.58795625  0.32424760  0.55413292     0.36490
C1708       C  0.59013698  0.30976714  0.52339687    -0.05690
C1709       C  0.57527695  0.32465232  0.99611795    -0.32660
C1710       C  0.55756000  0.35312088  0.49953828     0.36400
H1711       H  0.56700940  0.36172460  0.58214875     0.16770
O1712       O  0.60180147  0.31000127  0.58135164    -0.60150
H1713       H  0.57674762  0.31366336  0.97231111     0.16780
O1714       O  0.54311692  0.36671290  0.97241190    -0.60250
H1715       H  0.56038959  0.38257618  0.96132234     0.43780
H1716       H  0.62357945  0.32240657  0.58266280     0.43730
C1717       C  0.74621433  0.22714363  0.56503390    -0.05330
C1718       C  0.71863353  0.20949155  0.58119312    -0.32760
C1719       C  0.68676860  0.21330432  0.57020288     0.36490
C1720       C  0.68197331  0.23462753  0.54215413    -0.05690
C1721       C  0.70964758  0.25179203  0.52554043    -0.32660
C1722       C  0.74156171  0.24800688  0.53661445     0.36400
H1723       H  0.72169094  0.19358424  0.60320134     0.16770
O1724       O  0.66034194  0.19695399  0.58783275    -0.60150
H1725       H  0.70648877  0.26813382  0.00387027     0.16780
O1726       O  0.76803243  0.26484401  0.51950306    -0.60250
H1727       H  0.77661814  0.24876484  0.00417052     0.43780
H1728       H  0.65234434  0.21323330  0.60327312     0.43730
C1729       C  0.60377140  0.77680133  0.52114218     0.03270
C1730       C  0.63694125  0.77212355  0.02778833    -0.12880
C1731       C  0.64813400  0.73983255  0.03099600     0.00770
C1732       C  0.62588427  0.71234497  0.02675062    -0.11410
C1733       C  0.59262731  0.71679239  0.52077201     0.03260
C1734       C  0.58189304  0.74905000  0.51738561    -0.10830
H1735       H  0.65350922  0.79344741  0.03214884     0.08850
H1736       H  0.63400905  0.68734022  0.02990355     0.06380
H1737       H  0.55598872  0.75246908  0.51379101     0.06230
C1738       C  0.82374494  0.69228541  0.09902492     0.03270
C1739       C  0.79248630  0.69391217  0.08553177    -0.12880
C1740       C  0.77924468  0.72498397  0.07925609     0.00770
C1741       C  0.79791876  0.75424401  0.08611428    -0.11410
C1742       C  0.82877060  0.75264389  0.10044804     0.03260
C1743       C  0.84035858  0.72149263  0.10848495    -0.10830
H1744       H  0.77935920  0.67140597  0.07827532     0.08850
H1745       H  0.78871499  0.77819712  0.07949556     0.06380
H1746       H  0.86399685  0.72008081  0.11980062     0.06230
C1747       C  0.67406456  0.94652369  0.20232796     0.03270
C1748       C  0.67662374  0.95717662  0.23471413    -0.12880
C1749       C  0.70791690  0.96263620  0.24802521     0.00770
C1750       C  0.73648319  0.95694192  0.22887886    -0.11410
C1751       C  0.73397980  0.94608023  0.19673594     0.03260
C1752       C  0.70286501  0.93998528  0.18412907    -0.10830
H1753       H  0.65471596  0.96347501  0.24859392     0.08850
H1754       H  0.76067074  0.96243014  0.23840608     0.06380
H1755       H  0.70124311  0.93240357  0.15891056     0.06230
C1756       C  0.75208651  0.52898655  0.42493710     0.03270
C1757       C  0.75064040  0.52117679  0.39152262    -0.12880
C1758       C  0.71986897  0.51607844  0.37719448     0.00770
C1759       C  0.69077848  0.51980960  0.39626196    -0.11410
C1760       C  0.69200341  0.52717347  0.42968627     0.03260
C1761       C  0.72267156  0.53300756  0.44341752    -0.10830
H1762       H  0.77304218  0.51617463  0.37768293     0.08850
H1763       H  0.66700937  0.51478199  0.38566953     0.06380
H1764       H  0.72359569  0.53730052  0.46960363     0.06230
C1765       C  0.51113105  0.62327477  0.27141225     0.03270
C1766       C  0.50561138  0.65716597  0.27397792    -0.12880
C1767       C  0.49952951  0.67007900  0.30505092     0.00770
C1768       C  0.50063026  0.64906925  0.33378581    -0.11410
C1769       C  0.50630362  0.61525458  0.33166126     0.03260
C1770       C  0.51174861  0.60261059  0.30051608    -0.10830
H1771       H  0.50451507  0.67317970  0.25166979     0.08850
H1772       H  0.49480159  0.65845532  0.35778708     0.06380
H1773       H  0.51346555  0.57605744  0.29895047     0.06230
C1774       C  0.92872730  0.84176844  0.35674624     0.03270
C1775       C  0.94047550  0.81007628  0.35264192    -0.12880
C1776       C  0.94903579  0.79987278  0.32093435     0.00770
C1777       C  0.94508139  0.82141378  0.29312499    -0.11410
C1778       C  0.93338427  0.85311632  0.29667263     0.03260
C1779       C  0.92510660  0.86294041  0.32850330    -0.10830
H1780       H  0.94330730  0.79343350  0.37416345     0.08850
H1781       H  0.95234776  0.81392438  0.26869886     0.06380
H1782       H  0.91692058  0.88763410  0.33128967     0.06230
O1783       O  0.52582583  0.91457980  0.01322627    -0.79990
O1784       O  0.93087313  0.96333147  0.16931260    -0.81550
O1785       O  0.53361957  0.93428168  0.12730966    -0.78570
O1786       O  0.94177222  0.87885513  0.10013014    -0.76950
O1787       O  0.89646686  0.89371024  0.07233629    -0.78740
O1788       O  0.55534931  0.98733281  0.11386848    -0.79670
O1789       O  0.95939472  0.91888536  0.15439948    -0.81000
O1790       O  0.51773921  0.89341187  0.06683245    -0.81290
Eu1791     Eu  0.98164807  0.92843782  0.09763643     2.39200
O1792       O  0.92912942  0.94905874  0.09933320    -0.88800
O1793       O  0.51588704  0.96405342  0.06087154    -0.92400
C1794       C  0.53081315  0.89313154  0.03718576     1.02290
C1795       C  0.94188427  0.93428631  0.17505678     1.02110
C1796       C  0.55633415  0.95818399  0.12834138     1.02050
C1797       C  0.91212297  0.87325031  0.09021971     0.99910
H1798       H  0.99274572  0.98216379  0.13919268     0.29660
O1799       O  0.98413815  0.98253881  0.11728807    -1.01190
H1800       H  0.95890171  0.90634170  0.03729460     0.29690
O1801       O  0.95992642  0.92875805  0.04459411    -1.03730
O1802       O  0.89974913  0.55296855  0.11463868    -0.80950
O1803       O  0.99334255  0.00333803  0.45762605    -0.80490
O1804       O  0.51592177  0.54798838  0.13138814    -0.78930
O1805       O  0.85860554  0.94864316  0.08654950    -0.82270
O1806       O  0.90955790  0.91722160  0.99668231    -0.80130
O1807       O  0.56705112  0.51841735  0.04060342    -0.78770
O1808       O  0.98195389  0.58857262  0.02795990    -0.80300
O1809       O  0.89120738  0.53330946  0.00109854    -0.82220
O1810       O  0.52648203  0.57583742  0.05809706    -0.78960
O1811       O  0.86999491  0.97983096  0.01244421    -0.81630
O1812       O  0.96300576  0.53940496  0.15374482    -0.77370
O1813       O  0.55133413  0.98584985  0.99875954    -0.77400
O1814       O  0.96237546  0.92693701  0.47438593    -0.77050
O1815       O  0.87417918  0.97884253  0.13033888    -0.80540
O1816       O  0.91040374  0.57453493  0.06138227    -0.79970
O1817       O  0.96264376  0.54616358  0.47237961    -0.78290
Eu1818     Eu  0.93074512  0.00225167  0.11965270     2.39770
Eu1819     Eu  0.99411101  0.96478159  0.00787233     2.39570
Eu1820     Eu  0.51835302  0.51807351  0.07998514     2.38400
Eu1821     Eu  0.90682064  0.94931066  0.04696583     2.39880
Eu1822     Eu  0.94354334  0.53818400  0.02998743     2.39790
O1823       O  0.94082894  0.98453423  0.00975878    -0.92710
O1824       O  0.96516702  0.53800393  0.08301075    -0.91600
C1825       C  0.89708298  0.57520973  0.09078250     1.02460
C1826       C  0.98019777  0.53130249  0.45134503     1.01180
C1827       C  0.99292687  0.55237556  0.15345299     1.00570
C1828       C  0.85331765  0.96047222  0.11518786     1.02580
C1829       C  0.93293230  0.91278248  0.47499123     1.01500
C1830       C  0.57260134  0.00470119  0.01291526     1.00350
C1831       C  0.51047599  0.59572091  0.03975589     1.00410
C1832       C  0.86874666  0.50938803  0.99895671     1.03020
H1833       H  0.51067684  0.53314571  0.01228978     0.30390
O1834       O  0.99653386  0.51852288  0.02731836    -1.04870
H1835       H  0.88668424  0.51077276  0.06760241     0.32440
O1836       O  0.90870958  0.00305915  0.06660974    -1.07430
C1837       C  0.93130094  0.87624407  0.26699124    -0.05330
C1838       C  0.91766189  0.86408690  0.23836979    -0.32760
C1839       C  0.91929536  0.88371726  0.20867422     0.36490
C1840       C  0.93405924  0.91636012  0.20736689    -0.05690
C1841       C  0.94583250  0.92942338  0.23628003    -0.32660
C1842       C  0.94472191  0.90957667  0.26600584     0.36400
H1843       H  0.90665029  0.83884386  0.23874016     0.16770
O1844       O  0.90679487  0.87068419  0.18081521    -0.60150
H1845       H  0.95784348  0.95428691  0.23532660     0.16780
O1846       O  0.95952743  0.92199071  0.29299273    -0.60250
H1847       H  0.94452878  0.93838300  0.30139205     0.43780
H1848       H  0.92388800  0.85642315  0.17235305     0.43730
C1849       C  0.92474967  0.85470392  0.39036021    -0.05330
C1850       C  0.94930002  0.84931789  0.41310802    -0.32760
C1851       C  0.95017359  0.86611592  0.44226506     0.36490
C1852       C  0.92676704  0.88933035  0.44898800    -0.05690
C1853       C  0.90034274  0.89253279  0.42814275    -0.32660
C1854       C  0.89917213  0.87534955  0.39885921     0.36400
H1855       H  0.96911975  0.83352157  0.40747614     0.16770
O1856       O  0.97509597  0.86092335  0.46338600    -0.60150
H1857       H  0.88170131  0.90975012  0.43350758     0.16780
O1858       O  0.87309384  0.87884840  0.37870533    -0.60250
H1859       H  0.87456948  0.90260352  0.37057975     0.43780
H1860       H  0.96540985  0.84435443  0.48076936     0.43730
C1861       C  0.51030626  0.60821787  0.23871255    -0.05330
C1862       C  0.48520939  0.61618747  0.21732461    -0.32760
C1863       C  0.98047618  0.59916778  0.18861592     0.36490
C1864       C  0.00096424  0.57369715  0.18071545    -0.05690
C1865       C  0.52731410  0.56692954  0.20078718    -0.32660
C1866       C  0.53189275  0.58374605  0.22988601     0.36400
H1867       H  0.46811735  0.63462007  0.22364453     0.16770
O1868       O  0.95505196  0.60691330  0.16890486    -0.60150
H1869       H  0.54339486  0.54750727  0.19475725     0.16780
O1870       O  0.55752416  0.57626455  0.24945362    -0.60250
H1871       H  0.55187554  0.55328955  0.25901903     0.43780
H1872       H  0.96522957  0.62281675  0.15116864     0.43730
C1873       C  0.50013049  0.59208525  0.36127579    -0.05330
C1874       C  0.96930500  0.59132894  0.37824715    -0.32760
C1875       C  0.96196771  0.56996798  0.40621475     0.36490
C1876       C  0.98589155  0.54905006  0.41832956    -0.05690
C1877       C  0.51644526  0.54879800  0.40062444    -0.32660
C1878       C  0.52363103  0.57016768  0.37216623     0.36400
H1879       H  0.95065101  0.60737504  0.36962811     0.16770
O1880       O  0.93133268  0.57017509  0.42188254    -0.60150
H1881       H  0.53523220  0.53313635  0.40961477     0.16780
O1882       O  0.55389394  0.57011351  0.35574582    -0.60250
H1883       H  0.56806041  0.58741253  0.36583115     0.43780
H1884       H  0.91792421  0.55167994  0.41277649     0.43730
C1885       C  0.98794533  0.70412530  0.30761769    -0.05330
C1886       C  0.50212591  0.72566577  0.33001422    -0.32760
C1887       C  0.98991714  0.75693823  0.33441907     0.36490
C1888       C  0.96278072  0.76702675  0.31661164    -0.05690
C1889       C  0.94890329  0.74566904  0.29394224    -0.32660
C1890       C  0.96103816  0.71443580  0.28956495     0.36400
H1891       H  0.52277707  0.71819439  0.34412696     0.16770
O1892       O  0.50488621  0.77755086  0.35596835    -0.60150
H1893       H  0.92799518  0.75293581  0.28010441     0.16780
O1894       O  0.94564178  0.69373842  0.26836003    -0.60250
H1895       H  0.92937472  0.67928062  0.28254084     0.43780
H1896       H  0.52107971  0.79232980  0.34202715     0.43730
C1897       C  0.66192411  0.52196268  0.45187668    -0.05330
C1898       C  0.65250936  0.54662965  0.47292118    -0.32760
C1899       C  0.62424088  0.54111079  0.99438695     0.36490
C1900       C  0.60518354  0.51053394  0.49494882    -0.05690
C1901       C  0.61573464  0.98553278  0.47498348    -0.32660
C1902       C  0.64361564  0.49102575  0.45361577     0.36400
H1903       H  0.66675750  0.57035464  0.47225198     0.16770
O1904       O  0.61453419  0.56629691  0.01318445    -0.60150
H1905       H  0.60195725  0.96153514  0.47553240     0.16780
O1906       O  0.65352371  0.96549277  0.43535000    -0.60250
H1907       H  0.63752352  0.96356806  0.41758178     0.43780
H1908       H  0.62651638  0.56380423  0.03394287     0.43730
C1909       C  0.78265073  0.52519644  0.44306064    -0.05330
C1910       C  0.78122601  0.50206466  0.47036068    -0.32760
C1911       C  0.80886642  0.99715277  0.48873671     0.36490
C1912       C  0.83903432  0.51568303  0.48015456    -0.05690
C1913       C  0.84051092  0.53925464  0.45298891    -0.32660
C1914       C  0.81262291  0.54374935  0.43415696     0.36400
H1915       H  0.75840147  0.98742440  0.47746143     0.16770
O1916       O  0.80569610  0.97491684  0.01585096    -0.60150
H1917       H  0.86338021  0.55378753  0.44602199     0.16780
O1918       O  0.81457912  0.56694849  0.40789119    -0.60250
H1919       H  0.82504378  0.55586892  0.38926342     0.43780
H1920       H  0.80651073  0.95262430  0.00679239     0.43730
C1921       C  0.64299859  0.94825200  0.18448181    -0.05330
C1922       C  0.64458270  0.96595671  0.15351966    -0.32760
C1923       C  0.61678030  0.96816673  0.13486113     0.36490
C1924       C  0.58617253  0.95272030  0.14700018    -0.05690
C1925       C  0.58431169  0.93458861  0.17786411    -0.32660
C1926       C  0.61251208  0.93256576  0.19681212     0.36400
H1927       H  0.66767534  0.97845450  0.14364147     0.16770
O1928       O  0.62002468  0.98477284  0.10417083    -0.60150
H1929       H  0.56090207  0.92274370  0.18763207     0.16780
O1930       O  0.61028048  0.91450261  0.22668695    -0.60250
H1931       H  0.59981539  0.92899396  0.24251309     0.43780
H1932       H  0.62109704  0.00877320  0.10851377     0.43730
C1933       C  0.76349017  0.94670815  0.17408865    -0.05330
C1934       C  0.76620366  0.96964400  0.14647915    -0.32760
C1935       C  0.79483237  0.97291511  0.12579167     0.36490
C1936       C  0.82105968  0.95294788  0.13249377    -0.05690
C1937       C  0.81803638  0.92924141  0.15943557    -0.32660
C1938       C  0.78929482  0.92590287  0.18013619     0.36400
H1939       H  0.74652775  0.98594229  0.14171810     0.16770
O1940       O  0.79793487  0.49725348  0.10053794    -0.60150
H1941       H  0.83841360  0.91409173  0.16500046     0.16780
O1942       O  0.78694236  0.90290377  0.20658146    -0.60250
H1943       H  0.77586904  0.88261463  0.19817288     0.43780
H1944       H  0.78771018  0.48696774  0.08143586     0.43730
C1945       C  0.71106480  0.97668021  0.28090706    -0.05330
C1946       C  0.69636209  0.95907972  0.30918442    -0.32760
C1947       C  0.69978059  0.97141214  0.34059543     0.36490
C1948       C  0.71751090  0.50222247  0.34410654    -0.05690
C1949       C  0.73241262  0.51978427  0.31583802    -0.32660
C1950       C  0.72912958  0.50731474  0.28436809     0.36400
H1951       H  0.68269064  0.93537990  0.30693931     0.16770
O1952       O  0.68601891  0.95291720  0.36782855    -0.60150
H1953       H  0.74608184  0.54347266  0.31812445     0.16780
O1954       O  0.74327010  0.52545491  0.25707795    -0.60250
H1955       H  0.72543355  0.53864534  0.24832885     0.43780
H1956       H  0.70428100  0.94049909  0.37681306     0.43730
C1957       C  0.84209797  0.66172266  0.09846564    -0.05330
C1958       C  0.82836372  0.63099461  0.11271183    -0.32760
C1959       C  0.84646441  0.60241510  0.11202097     0.36490
C1960       C  0.87839840  0.60454428  0.09659997    -0.05690
C1961       C  0.89189328  0.63522292  0.08259501    -0.32660
C1962       C  0.87415715  0.66349852  0.08325694     0.36400
H1963       H  0.80366804  0.62917856  0.12422341     0.16770
O1964       O  0.83202367  0.57234609  0.12448934    -0.60150
H1965       H  0.91623929  0.63718450  0.07021406     0.16780
O1966       O  0.88759933  0.69242433  0.06706449    -0.60200
H1967       H  0.90655824  0.69981505  0.08016424     0.43780
H1968       H  0.83702729  0.57105981  0.14829063     0.43730
C1969       C  0.85126929  0.78292399  0.10273853    -0.05330
C1970       C  0.88454239  0.78255182  0.09121801    -0.32760
C1971       C  0.90578444  0.81135736  0.08981133     0.36490
C1972       C  0.89373769  0.84129220  0.09937637    -0.05690
C1973       C  0.86113713  0.84149488  0.11251189    -0.32660
C1974       C  0.83993342  0.81256254  0.11438726     0.36400
H1975       H  0.89377725  0.76024015  0.08167333     0.16770
O1976       O  0.93721134  0.81068036  0.07610741    -0.60150
H1977       H  0.85171699  0.86453814  0.12018234     0.16780
O1978       O  0.80837861  0.81339177  0.12781414    -0.60250
H1979       H  0.79673249  0.82765799  0.11198507     0.43780
H1980       H  0.95109996  0.80534666  0.09501788     0.43730
C1981       C  0.56836342  0.68767285  0.02280519    -0.05330
C1982       C  0.57112850  0.66253604  0.50044921    -0.32760
C1983       C  0.55045344  0.63323743  0.00443162     0.36490
C1984       C  0.52705349  0.62869161  0.03128240    -0.05690
C1985       C  0.52369390  0.65407213  0.05313440    -0.32660
C1986       C  0.54399678  0.68357401  0.04890067     0.36400
H1987       H  0.58990805  0.66530977  0.48043897     0.16770
O1988       O  0.55463840  0.60833985  0.48320340    -0.60150
H1989       H  0.50631592  0.65039795  0.07433980     0.16780
O1990       O  0.54171666  0.70711211  0.07192754    -0.60250
H1991       H  0.52311546  0.72033563  0.06517840     0.43780
H1992       H  0.53771747  0.61115209  0.46647591     0.43730
C1993       C  0.55317290  0.86613242  0.03100104    -0.05330
C1994       C  0.56934425  0.85186638  0.05784988    -0.32760
C1995       C  0.58795637  0.82424779  0.05413311     0.36490
C1996       C  0.59013709  0.80976726  0.02339711    -0.05690
C1997       C  0.57527687  0.82465224  0.49611781    -0.32660
C1998       C  0.55756010  0.85312094  0.99953843     0.36400
H1999       H  0.56700955  0.86172486  0.08214886     0.16770
O2000       O  0.60180160  0.81000152  0.08135187    -0.60150
H2001       H  0.57674754  0.81366331  0.47231095     0.16780
O2002       O  0.54311683  0.86671284  0.47241181    -0.60250
H2003       H  0.56038950  0.88257614  0.46132226     0.43780
H2004       H  0.62357955  0.82240688  0.08266304     0.43730
C2005       C  0.74621440  0.72714392  0.06503459    -0.05330
C2006       C  0.71863362  0.70949161  0.08119360    -0.32760
C2007       C  0.68676870  0.71330431  0.07020329     0.36490
C2008       C  0.68197341  0.73462771  0.04215467    -0.05690
C2009       C  0.70964766  0.75179246  0.02554119    -0.32660
C2010       C  0.74156177  0.74800737  0.03661528     0.36400
H2011       H  0.72169103  0.69358413  0.10320170     0.16770
O2012       O  0.66034206  0.69695374  0.08783298    -0.60150
H2013       H  0.70648872  0.76813343  0.50386972     0.16780
O2014       O  0.76803247  0.76484474  0.01950408    -0.60250
H2015       H  0.77661802  0.74876423  0.50416993     0.43780
H2016       H  0.65234432  0.71323289  0.10327346     0.43730
C2017       C  0.60377149  0.77680144  0.02114239     0.03270
C2018       C  0.63694119  0.77212343  0.52778803    -0.12880
C2019       C  0.64813392  0.73983243  0.53099567     0.00770
C2020       C  0.62588418  0.71234485  0.52675037    -0.11410
C2021       C  0.59262741  0.71679250  0.02077219     0.03260
C2022       C  0.58189315  0.74905012  0.01738576    -0.10830
H2023       H  0.65350918  0.79344729  0.53214850     0.08850
H2024       H  0.63400895  0.68734011  0.52990331     0.06380
H2025       H  0.55598884  0.75246919  0.01379109     0.06230
C2026       C  0.82374485  0.69228526  0.59902465     0.03270
C2027       C  0.79248624  0.69391199  0.58553142    -0.12880
C2028       C  0.77924464  0.72498377  0.57925561     0.00770
C2029       C  0.79791871  0.75424384  0.58611374    -0.11410
C2030       C  0.82877050  0.75264376  0.60044762     0.03260
C2031       C  0.84035845  0.72149252  0.60848466    -0.10830
H2032       H  0.77935915  0.67140577  0.57827500     0.08850
H2033       H  0.78871496  0.77819693  0.57949493     0.06380
H2034       H  0.86399667  0.72008072  0.61980044     0.06230
C2035       C  0.67406447  0.94652364  0.70232796     0.03270
C2036       C  0.67662366  0.95717661  0.73471411    -0.12880
C2037       C  0.70791683  0.96263622  0.74802518     0.00770
C2038       C  0.73648311  0.95694194  0.72887882    -0.11410
C2039       C  0.73397972  0.94608021  0.69673592     0.03260
C2040       C  0.70286492  0.93998523  0.68412907    -0.10830
H2041       H  0.65471588  0.96347500  0.74859390     0.08850
H2042       H  0.76067066  0.96243016  0.73840603     0.06380
H2043       H  0.70124302  0.93240349  0.65891057     0.06230
C2044       C  0.75208660  0.52898653  0.92493705     0.03270
C2045       C  0.75064047  0.52117676  0.89152257    -0.12880
C2046       C  0.71986903  0.51607841  0.87719445     0.00770
C2047       C  0.69077855  0.51980959  0.89626195    -0.11410
C2048       C  0.69200350  0.52717346  0.92968625     0.03260
C2049       C  0.72267165  0.53300755  0.94341748    -0.10830
H2050       H  0.77304224  0.51617460  0.87768288     0.08850
H2051       H  0.66700944  0.51478199  0.88566952     0.06380
H2052       H  0.72359580  0.53730051  0.96960359     0.06230
C2053       C  0.51113104  0.62327474  0.77141221     0.03270
C2054       C  0.50561135  0.65716594  0.77397788    -0.12880
C2055       C  0.49952952  0.67007897  0.80505089     0.00770
C2056       C  0.50063031  0.64906922  0.83378576    -0.11410
C2057       C  0.50630367  0.61525456  0.83166121     0.03260
C2058       C  0.51174864  0.60261057  0.80051603    -0.10830
H2059       H  0.50451500  0.67317966  0.75166974     0.08850
H2060       H  0.49480167  0.65845530  0.85778705     0.06380
H2061       H  0.51346558  0.57605741  0.79895042     0.06230
C2062       C  0.92872735  0.84176843  0.85674630     0.03270
C2063       C  0.94047555  0.81007627  0.85264198    -0.12880
C2064       C  0.94903580  0.79987274  0.82093440     0.00770
C2065       C  0.94508137  0.82141372  0.79312505    -0.11410
C2066       C  0.93338426  0.85311627  0.79667268     0.03260
C2067       C  0.92510662  0.86294038  0.82850335    -0.10830
H2068       H  0.94330738  0.79343349  0.87416352     0.08850
H2069       H  0.95234772  0.81392431  0.76869892     0.06380
H2070       H  0.91692059  0.88763406  0.83128971     0.06230
O2071       O  0.52582574  0.91457969  0.51322623    -0.79990
O2072       O  0.93087309  0.96333134  0.66931260    -0.81550
O2073       O  0.53361945  0.93428147  0.62730964    -0.78570
O2074       O  0.94177211  0.87885500  0.60013007    -0.76950
O2075       O  0.89646678  0.89371015  0.57233622    -0.78740
O2076       O  0.55534919  0.98733261  0.61386849    -0.79670
O2077       O  0.95939465  0.91888522  0.65439947    -0.81000
O2078       O  0.51773910  0.89341171  0.56683239    -0.81290
Eu2079     Eu  0.98164799  0.92843768  0.59763641     2.39200
O2080       O  0.92912934  0.94905862  0.59933320    -0.88800
O2081       O  0.51588692  0.96405326  0.56087153    -0.92400
C2082       C  0.53081305  0.89313140  0.53718569     1.02290
C2083       C  0.94188422  0.93428617  0.67505678     1.02110
C2084       C  0.55633404  0.95818379  0.62834137     1.02050
C2085       C  0.91212287  0.87325019  0.59021963     0.99910
H2086       H  0.99274565  0.98216365  0.63919267     0.29660
O2087       O  0.98413808  0.98253867  0.61728806    -1.01190
H2088       H  0.95890162  0.90634161  0.53729456     0.29690
O2089       O  0.95992634  0.92875796  0.54459409    -1.03730
O2090       O  0.89974904  0.55296840  0.61463873    -0.80950
O2091       O  0.99334262  0.00333807  0.95762604    -0.80490
O2092       O  0.51592168  0.54798823  0.63138818    -0.78930
O2093       O  0.85860546  0.94864307  0.58654949    -0.82270
O2094       O  0.90955780  0.91722155  0.49668229    -0.80130
O2095       O  0.56705104  0.51841723  0.54060345    -0.78770
O2096       O  0.98195377  0.58857249  0.52795993    -0.80300
O2097       O  0.89120729  0.53330937  0.50109857    -0.82220
O2098       O  0.52648195  0.57583729  0.55809713    -0.78960
O2099       O  0.86999483  0.97983088  0.51244422    -0.81630
O2100       O  0.96300568  0.53940481  0.65374483    -0.77370
O2101       O  0.55133406  0.98584973  0.49875955    -0.77400
O2102       O  0.96237555  0.92693706  0.97438596    -0.77050
O2103       O  0.87417911  0.97884239  0.63033889    -0.80540
O2104       O  0.91040365  0.57453478  0.56138232    -0.79970
O2105       O  0.96264385  0.54616365  0.97237959    -0.78290
Eu2106     Eu  0.93074505  0.00225154  0.61965271     2.39770
Eu2107     Eu  0.99411093  0.96478151  0.50787231     2.39570
Eu2108     Eu  0.51835294  0.51807336  0.57998517     2.38400
Eu2109     Eu  0.90682056  0.94931057  0.54696582     2.39880
Eu2110     Eu  0.94354325  0.53818387  0.52998745     2.39790
O2111       O  0.94082886  0.98453414  0.50975877    -0.92710
O2112       O  0.96516693  0.53800378  0.58301077    -0.91600
C2113       C  0.89708290  0.57520958  0.59078255     1.02460
C2114       C  0.98019784  0.53130254  0.95134501     1.01180
C2115       C  0.99292678  0.55237542  0.65345299     1.00570
C2116       C  0.85331757  0.96047211  0.61518786     1.02580
C2117       C  0.93293240  0.91278253  0.97499126     1.01500
C2118       C  0.57260127  0.00470106  0.51291529     1.00350
C2119       C  0.51047592  0.59572079  0.53975596     1.00410
C2120       C  0.86874656  0.50938795  0.49895673     1.03020
H2121       H  0.51067678  0.53314562  0.51228982     0.30390
O2122       O  0.99653377  0.51852276  0.52731837    -1.04870
H2123       H  0.88668414  0.51077264  0.56760243     0.32440
O2124       O  0.90870950  0.00305905  0.56660976    -1.07430
C2125       C  0.93130091  0.87624400  0.76699128    -0.05330
C2126       C  0.91766186  0.86408680  0.73836983    -0.32760
C2127       C  0.91929533  0.88371714  0.70867425     0.36490
C2128       C  0.93405921  0.91636000  0.70736689    -0.05690
C2129       C  0.94583246  0.92942328  0.73628003    -0.32660
C2130       C  0.94472187  0.90957660  0.76600585     0.36400
H2131       H  0.90665026  0.83884376  0.73874023     0.16770
O2132       O  0.90679485  0.87068404  0.68081525    -0.60150
H2133       H  0.95784344  0.95428682  0.73532657     0.16780
O2134       O  0.95952739  0.92199067  0.79299273    -0.60250
H2135       H  0.94452874  0.93838296  0.80139204     0.43780
H2136       H  0.92388799  0.85642300  0.67235310     0.43730
C2137       C  0.92474975  0.85470392  0.89036026    -0.05330
C2138       C  0.94930012  0.84931792  0.91310806    -0.32760
C2139       C  0.95017370  0.86611598  0.94226508     0.36490
C2140       C  0.92676714  0.88933039  0.94898803    -0.05690
C2141       C  0.90034281  0.89253279  0.92814281    -0.32660
C2142       C  0.89917219  0.87534954  0.89885928     0.36400
H2143       H  0.96911986  0.83352162  0.90747617     0.16770
O2144       O  0.97509611  0.86092344  0.96338600    -0.60150
H2145       H  0.88170138  0.90975011  0.93350765     0.16780
O2146       O  0.87309388  0.87884835  0.87870541    -0.60250
H2147       H  0.87456951  0.90260347  0.87057983     0.43780
H2148       H  0.96541002  0.84435452  0.98076938     0.43730
C2149       C  0.51030622  0.60821782  0.73871252    -0.05330
C2150       C  0.48520930  0.61618736  0.71732460    -0.32760
C2151       C  0.98047609  0.59916766  0.68861590     0.36490
C2152       C  0.00096415  0.57369703  0.68071543    -0.05690
C2153       C  0.52731406  0.56692948  0.70078716    -0.32660
C2154       C  0.53189273  0.58374603  0.72988596     0.36400
H2155       H  0.46811725  0.63461995  0.72364454     0.16770
O2156       O  0.95505185  0.60691316  0.66890485    -0.60150
H2157       H  0.54339484  0.54750723  0.69475721     0.16780
O2158       O  0.55752418  0.57626458  0.74945354    -0.60250
H2159       H  0.55187561  0.55328958  0.75901898     0.43780
H2160       H  0.96522944  0.62281660  0.65116861     0.43730
C2161       C  0.50013054  0.59208523  0.86127575    -0.05330
C2162       C  0.96930502  0.59132891  0.87824709    -0.32760
C2163       C  0.96196775  0.56996797  0.90621470     0.36490
C2164       C  0.98589161  0.54905008  0.91832952    -0.05690
C2165       C  0.51644533  0.54879801  0.90062442    -0.32660
C2166       C  0.52363109  0.57016768  0.87216619     0.36400
H2167       H  0.95065102  0.60737500  0.86962803     0.16770
O2168       O  0.93133272  0.57017507  0.92188249    -0.60150
H2169       H  0.53523227  0.53313637  0.90961476     0.16780
O2170       O  0.55389401  0.57011351  0.85574579    -0.60250
H2171       H  0.56806047  0.58741254  0.86583112     0.43780
H2172       H  0.91792427  0.55167990  0.91277646     0.43730
C2173       C  0.98794533  0.70412527  0.80761765    -0.05330
C2174       C  0.50212594  0.72566573  0.83001419    -0.32760
C2175       C  0.98991717  0.75693819  0.83441906     0.36490
C2176       C  0.96278071  0.76702670  0.81661169    -0.05690
C2177       C  0.94890325  0.74566900  0.79394229    -0.32660
C2178       C  0.96103813  0.71443577  0.78956497     0.36400
H2179       H  0.52277714  0.71819436  0.84412690     0.16770
O2180       O  0.50488628  0.77755081  0.85596835    -0.60150
H2181       H  0.92799512  0.75293577  0.78010450     0.16780
O2182       O  0.94564172  0.69373840  0.76836006    -0.60250
H2183       H  0.92937468  0.67928059  0.78254088     0.43780
H2184       H  0.52107975  0.79232976  0.84202713     0.43730
C2185       C  0.66192420  0.52196270  0.95187667    -0.05330
C2186       C  0.65250947  0.54662967  0.97292118    -0.32760
C2187       C  0.62424077  0.54111074  0.49438695     0.36490
C2188       C  0.60518362  0.51053400  0.99494881    -0.05690
C2189       C  0.61573470  0.98553289  0.97498346    -0.32660
C2190       C  0.64361569  0.49102578  0.95361575     0.36400
H2191       H  0.66675764  0.57035464  0.97225198     0.16770
O2192       O  0.61453405  0.56629686  0.51318444    -0.60150
H2193       H  0.60195732  0.96153525  0.97553239     0.16780
O2194       O  0.65352378  0.96549285  0.93535000    -0.60250
H2195       H  0.63752358  0.96356813  0.91758178     0.43780
H2196       H  0.62651624  0.56380422  0.53394286     0.43730
C2197       C  0.78265083  0.52519644  0.94306059    -0.05330
C2198       C  0.78122612  0.50206465  0.97036062    -0.32760
C2199       C  0.80886650  0.99715285  0.98873671     0.36490
C2200       C  0.83903441  0.51568308  0.98015453    -0.05690
C2201       C  0.84051100  0.53925469  0.95298888    -0.32660
C2202       C  0.81262299  0.54374937  0.93415692     0.36400
H2203       H  0.75840154  0.98742448  0.97746145     0.16770
O2204       O  0.80569603  0.97491671  0.51585093    -0.60150
H2205       H  0.86338028  0.55378760  0.94602197     0.16780
O2206       O  0.81457919  0.56694852  0.90789116    -0.60250
H2207       H  0.82504383  0.55586895  0.88926337     0.43780
H2208       H  0.80651068  0.95262419  0.50679232     0.43730
C2209       C  0.64299849  0.94825190  0.68448181    -0.05330
C2210       C  0.64458259  0.96595655  0.65351962    -0.32760
C2211       C  0.61678018  0.96816652  0.63486109     0.36490
C2212       C  0.58617242  0.95272010  0.64700017    -0.05690
C2213       C  0.58431159  0.93458847  0.67786413    -0.32660
C2214       C  0.61251199  0.93256567  0.69681215     0.36400
H2215       H  0.66767523  0.97845434  0.64364141     0.16770
O2216       O  0.62002456  0.98477257  0.60417076    -0.60150
H2217       H  0.56090197  0.92274357  0.68763212     0.16780
O2218       O  0.61028039  0.91450258  0.72668700    -0.60250
H2219       H  0.59981530  0.92899396  0.74251312     0.43780
H2220       H  0.62109692  0.00877294  0.60851365     0.43730
C2221       C  0.76349008  0.94670810  0.67408863    -0.05330
C2222       C  0.76620358  0.96964392  0.64647912    -0.32760
C2223       C  0.79483229  0.97291500  0.62579164     0.36490
C2224       C  0.82105960  0.95294778  0.63249376    -0.05690
C2225       C  0.81803629  0.92924133  0.65943558    -0.32660
C2226       C  0.78929472  0.92590282  0.68013619     0.36400
H2227       H  0.74652768  0.98594221  0.64171805     0.16770
O2228       O  0.79793483  0.49725344  0.60053799    -0.60150
H2229       H  0.83841350  0.91409165  0.66500048     0.16780
O2230       O  0.78694226  0.90290374  0.70658148    -0.60250
H2231       H  0.77586891  0.88261460  0.69817293     0.43780
H2232       H  0.78771012  0.48696774  0.58143590     0.43730
C2233       C  0.71106474  0.97668024  0.78090702    -0.05330
C2234       C  0.69636205  0.95907976  0.80918440    -0.32760
C2235       C  0.69978060  0.97141217  0.84059540     0.36490
C2236       C  0.71751093  0.50222243  0.84410651    -0.05690
C2237       C  0.73241263  0.51978424  0.81583798    -0.32660
C2238       C  0.72912955  0.50731470  0.78436806     0.36400
H2239       H  0.68269059  0.93537994  0.80693930     0.16770
O2240       O  0.68601894  0.95291724  0.86782854    -0.60150
H2241       H  0.74608187  0.54347262  0.81812440     0.16780
O2242       O  0.74327005  0.52545487  0.75707790    -0.60250
H2243       H  0.72543350  0.53864530  0.74832882     0.43780
H2244       H  0.70428104  0.94049911  0.87681303     0.43730
C2245       C  0.84209789  0.66172252  0.59846550    -0.05330
C2246       C  0.82836360  0.63099448  0.61271168    -0.32760
C2247       C  0.84646430  0.60241496  0.61202091     0.36490
C2248       C  0.87839834  0.60454414  0.59660001    -0.05690
C2249       C  0.89189326  0.63522277  0.58259509    -0.32660
C2250       C  0.87415712  0.66349837  0.58325692     0.36400
H2251       H  0.80366789  0.62917844  0.62422317     0.16770
O2252       O  0.83202352  0.57234597  0.62448925    -0.60150
H2253       H  0.91623931  0.63718435  0.57021422     0.16780
O2254       O  0.88759935  0.69242416  0.56706447    -0.60200
H2255       H  0.90655821  0.69981490  0.58016428     0.43780
H2256       H  0.83702709  0.57105968  0.64829055     0.43730
C2257       C  0.85126915  0.78292388  0.60273818    -0.05330
C2258       C  0.88454233  0.78255169  0.59121791    -0.32760
C2259       C  0.90578438  0.81135722  0.58981134     0.36490
C2260       C  0.89373757  0.84129208  0.59937624    -0.05690
C2261       C  0.86113692  0.84149478  0.61251152    -0.32660
C2262       C  0.83993321  0.81256244  0.61438678     0.36400
H2263       H  0.89377727  0.76024000  0.58167333     0.16770
O2264       O  0.93721137  0.81068019  0.57610766    -0.60150
H2265       H  0.85171671  0.86453805  0.62018187     0.16780
O2266       O  0.80837831  0.81339170  0.62781343    -0.60250
H2267       H  0.79673231  0.82765792  0.61198425     0.43780
H2268       H  0.95109984  0.80534650  0.59501824     0.43730
C2269       C  0.56836331  0.68767274  0.52280510    -0.05330
C2270       C  0.57112871  0.66253614  0.00044933    -0.32760
C2271       C  0.55045325  0.63323732  0.50443157     0.36490
C2272       C  0.52705343  0.62869148  0.53128245    -0.05690
C2273       C  0.52369393  0.65407199  0.55313449    -0.32660
C2274       C  0.54399679  0.68357387  0.54890069     0.36400
H2275       H  0.58990835  0.66530985  0.98043917     0.16770
O2276       O  0.55463869  0.60833994  0.98320350    -0.60150
H2277       H  0.50631605  0.65039779  0.57433996     0.16780
O2278       O  0.54171677  0.70711197  0.57192758    -0.60250
H2279       H  0.52311556  0.72033550  0.56517851     0.43780
H2280       H  0.53771784  0.61115215  0.96647593     0.43730
C2281       C  0.55317279  0.86613228  0.53100095    -0.05330
C2282       C  0.56934413  0.85186620  0.55784977    -0.32760
C2283       C  0.58795626  0.82424762  0.55413297     0.36490
C2284       C  0.59013700  0.80976714  0.52339694    -0.05690
C2285       C  0.57527695  0.82465232  0.99611796    -0.32660
C2286       C  0.55756001  0.85312085  0.49953831     0.36400
H2287       H  0.56700941  0.86172464  0.58214877     0.16770
O2288       O  0.60180149  0.81000131  0.58135171    -0.60150
H2289       H  0.57674760  0.81366335  0.97231113     0.16780
O2290       O  0.54311690  0.86671289  0.97241191    -0.60250
H2291       H  0.56038957  0.88257617  0.96132234     0.43780
H2292       H  0.62357946  0.82240663  0.58266287     0.43730
C2293       C  0.74621436  0.72714369  0.56503412    -0.05330
C2294       C  0.71863356  0.70949155  0.58119328    -0.32760
C2295       C  0.68676863  0.71330430  0.57020302     0.36490
C2296       C  0.68197334  0.73462757  0.54215430    -0.05690
C2297       C  0.70964761  0.75179214  0.52554067    -0.32660
C2298       C  0.74156173  0.74800701  0.53661472     0.36400
H2299       H  0.72169097  0.69358419  0.60320146     0.16770
O2300       O  0.66034197  0.69695389  0.58783283    -0.60150
H2301       H  0.70648877  0.76813385  0.00387031     0.16780
O2302       O  0.76803244  0.76484421  0.51950338    -0.60250
H2303       H  0.77661814  0.74876488  0.00417056     0.43780
H2304       H  0.65234433  0.71323316  0.60327323     0.43730
loop_ 
_geom_bond_atom_site_label_1 
_geom_bond_atom_site_label_2 
_geom_bond_distance 
_geom_bond_site_symmetry_2 
_ccdc_geom_bond_type 
C1            C6   1.402       .  A
C1          C290   1.407       .  A
C1          C556   1.479       .  S
C2            C3   1.408       .  A
C2          C289   1.407       .  A
C2            H7   1.084       .  S
C3            C4   1.406       .  A
C3          C280   1.488       .  S
C4          C293   1.403       .  A
C4            H8   1.084       .  S
C5            C6   1.400       .  A
C5          C292   1.403       .  A
C5          C541   1.479       .  S
C6            H9   1.084       .  S
C10          C11   1.407       .  A
C10          C15   1.399       .  A
C10         C229   1.482       .  S
C11          C12   1.410       .  A
C11          H16   1.084       .  S
C12          C13   1.408       .  A
C12         C277   1.487       .  S
C13          C14   1.406       .  A
C13          H17   1.082       .  S
C14          C15   1.396       .  A
C14         C241   1.486       .  S
C15          H18   1.084       .  S
C19          C20   1.407       .  A
C19          C24   1.402       .  A
C19         C193   1.483       .  S
C20          C21   1.410       .  A
C20          H25   1.083       .  S
C21          C22   1.405       .  A
C21         C217   1.482       .  S
C22          C23   1.401       .  A
C22          H26   1.084       .  S
C23          C24   1.394       .  A
C23         C205   1.474       .  S
C24          H27   1.085       .  S
C28          C29   1.408       .  A
C28          C33   1.405       .  A
C28         C181   1.480       .  S
C29          C30   1.407       .  A
C29          H34   1.084       .  S
C30          C31   1.404       .  A
C30         C220   1.484       .  S
C31          C32   1.403       .  A
C31          H35   1.084       .  S
C32          C33   1.396       .  A
C32         C169   1.480       .  S
C33          H36   1.085       .  S
C37          C38   1.409       .  A
C37          C42   1.405       .  A
C37         C133   1.487       .  S
C38          C39   1.406   1_455  A
C38          H43   1.084       .  S
C39          C40   1.403   1_655  A
C39        C1309   1.488       .  S
C40          C41   1.405       .  A
C40          H44   1.084   1_455  S
C41          C42   1.400       .  A
C41         C145   1.479       .  S
C42          H45   1.083       .  S
C46          C47   1.409       .  A
C46          C51   1.405       .  A
C46         C121   1.490       .  S
C47          C48   1.405       .  A
C47          H52   1.083       .  S
C48          C49   1.403       .  A
C48         C160   1.487       .  S
C49          C50   1.406       .  A
C49          H53   1.084       .  S
C50          C51   1.402       .  A
C50         C109   1.487       .  S
C51          H54   1.081       .  S
O55          C66   1.293       .  A
O55       Eu1243   2.474   1_455  S
O56          C67   1.293       .  A
O56         Eu90   2.478       .  S
O57          C68   1.293       .  A
O57       Eu1215   2.476   1_455  S
O58          C69   1.295       .  A
O58         Eu63   2.483       .  S
O59          C69   1.284       .  A
O59         Eu93   2.416       .  S
O60          C68   1.287       .  A
O60        Eu668   2.429       .  S
O61          C67   1.287       .  A
O61         Eu63   2.431       .  S
O62          C66   1.291       .  A
O62       Eu1215   2.452   1_455  S
Eu63       O1209   2.476       .  S
Eu63       O1214   2.452       .  S
Eu63         O73   2.354       .  S
Eu63         O64   2.339       .  S
Eu63         O71   2.362       .  S
Eu63       O1217   2.350       .  S
O64         Eu93   2.339       .  S
O64         Eu90   2.339       .  S
O65       Eu1215   2.350   1_455  S
O65       Eu1243   2.353   1_455  S
O65        Eu668   2.350       .  S
C66         C265   1.488       .  S
C67         C112   1.469       .  S
C68         C196   1.476       .  S
C69         C244   1.467       .  S
H70          O71   0.966       .  S
O71         Eu90   2.357       .  S
O71       Eu1820   2.360       .  S
H72          O73   0.966       .  S
O73         Eu91   2.357       .  S
O73         Eu93   2.360       .  S
O74          C97   1.292       .  A
O74        Eu666   2.474       .  S
O75         C674   1.296       .  A
O75        Eu379   2.490       .  S
O76        C1251   1.291   1_455  A
O76         Eu92   2.464       .  S
O77         C100   1.292       .  A
O77         Eu93   2.472       .  S
O78         C389   1.293       .  A
O78         Eu93   2.474   1_556  S
O79         C678   1.295       .  A
O79         Eu92   2.484       .  S
O80        C1255   1.292       .  A
O80         Eu94   2.474       .  S
O81         C104   1.292   1_554  A
O81         Eu94   2.470       .  S
O82         C103   1.288       .  A
O82         Eu92   2.441       .  S
O83         C680   1.287   1_554  A
O83         Eu93   2.434       .  S
O84          C99   1.290       .  A
O84        Eu666   2.448       .  S
O85         C102   1.287   1_556  A
O85       Eu1243   2.426   1_456  S
O86         C101   1.289       .  A
O86        Eu379   2.439       .  S
O87         C100   1.287       .  A
O87         Eu90   2.436       .  S
O88          C97   1.287       .  A
O88         Eu94   2.428       .  S
O89          C98   1.286       .  A
O89        Eu382   2.421       .  S
Eu90        O650   2.474       .  S
Eu90        O660   2.448       .  S
Eu90        O108   2.359       .  S
Eu90        O672   2.354       .  S
Eu91       O1207   2.474       .  S
Eu91        O363   2.490   1_554  S
Eu91       O1237   2.426   1_554  S
Eu91        O374   2.439   1_554  S
Eu91         O95   2.353       .  S
Eu91       O1217   2.353       .  S
Eu91        O682   2.345       .  S
Eu92        O636   2.429   1_545  S
Eu92        O641   2.350   1_545  S
Eu92       O1799   2.360   1_445  S
Eu92       O1258   2.341   1_455  S
Eu92       O1248   2.354   1_455  S
Eu93         O95   2.347       .  S
Eu93        O108   2.349       .  S
Eu94        O377   2.421   1_554  S
Eu94        O106   2.341       .  S
Eu94         O96   2.352       .  S
Eu94        O671   2.354   1_545  S
Eu94        O684   2.349       .  S
O95        Eu670   2.354       .  S
O96        Eu666   2.354       .  S
O96       Eu1244   2.354       .  S
C97         C232   1.471       .  S
C98         C148   1.480       .  S
C98         O651   1.296       .  A
C99         C136   1.471       .  S
C99        O1228   1.291       .  A
C100        C208   1.463       .  S
C101        C124   1.472       .  S
C101        O366   1.293       .  A
C102       C1036   1.480   1_554  S
C102        O655   1.295       .  A
C103        C256   1.466       .  S
C103       O1232   1.292   1_455  A
C104        C472   1.481       .  S
C104        O659   1.287   1_546  A
H105       O1258   0.965   1_455  S
O106       Eu667   2.345   1_545  S
O106      Eu1244   2.341       .  S
O106       H1257   0.965       .  S
H107        O684   0.966       .  S
O108       Eu670   2.349       .  S
O108        H683   0.966       .  S
C109        C110   1.404       .  A
C109        C114   1.415       .  A
C110        C111   1.397       .  A
C110        H115   1.084       .  S
C111        C112   1.407       .  A
C111        O116   1.373       .  S
C112        C113   1.399       .  A
C113        C114   1.403       .  A
C113        H117   1.084       .  S
C114        O118   1.372       .  S
O116        H120   0.992       .  S
O118        H119   0.992       .  S
C121        C122   1.404       .  A
C121        C126   1.416       .  A
C122        C123   1.394       .  A
C122        H127   1.083       .  S
C123        C124   1.406       .  A
C123        O128   1.371       .  S
C124        C125   1.400       .  A
C125        C126   1.407       .  A
C125        H129   1.084       .  S
C126        O130   1.373       .  S
O128        H132   0.992       .  S
O130        H131   0.992       .  S
C133        C134   1.406   1_455  A
C133        C138   1.413       .  A
C134       C1287   1.396       .  A
C134        H139   1.083       .  S
C135        C136   1.406       .  A
C135       C1286   1.396       .  A
C135        O140   1.372       .  S
C136       C1289   1.402       .  A
C137        C138   1.404       .  A
C137       C1288   1.402       .  A
C137        H141   1.084       .  S
C138        O142   1.373       .  S
O140        H144   0.992       .  S
O142        H143   0.992       .  S
C145        C150   1.410       .  A
C145       C1298   1.399   1_455  A
C146        C147   1.392       .  A
C146       C1297   1.399       .  A
C146        H151   1.084       .  S
C147        C148   1.413       .  A
C147        O152   1.372       .  S
C148       C1301   1.406       .  A
C149        C150   1.406       .  A
C149       C1300   1.406   1_455  A
C149        H153   1.083       .  S
C150        O154   1.371       .  S
O152        H156   0.992       .  S
O154        H155   0.992       .  S
C157        C162   1.412       .  A
C157       C1310   1.405       .  A
C157       C1191   1.488       .  S
C158       C1309   1.405   1_455  A
C158       C1311   1.403   1_455  A
C158        H163   1.084       .  S
C159        C160   1.411       .  A
C159       C1310   1.403       .  A
C159       O1316   1.372       .  S
C160        C161   1.404       .  A
C161        C162   1.400       .  A
C161        H165   1.084       .  S
C162        O166   1.372       .  S
O164       C1311   1.372   1_455  S
O164        H168   0.992       .  S
O166        H167   0.992       .  S
C169        C170   1.407       .  A
C169        C174   1.406   1_545  A
C170        C459   1.407       .  A
C170        H175   1.083       .  S
C171        C458   1.407       .  A
C171        C460   1.411       .  A
C171        O176   1.371   1_556  S
C172        C459   1.411       .  A
C172        C749   1.404   1_545  A
C172        C966   1.480       .  S
C173        C748   1.404       .  A
C173        C750   1.392       .  A
C173        H177   1.084       .  S
C174        C749   1.392       .  A
C174        O754   1.372       .  S
O176        H180   0.992       .  S
O178        C750   1.372       .  S
O178        H179   0.992       .  S
C181        C182   1.401       .  A
C181        C186   1.408       .  A
C182        C759   1.391   1_545  A
C182        H763   1.084   1_545  S
C183        C758   1.391       .  A
C183        C760   1.411       .  A
C183        O476   1.373       .  S
C184        C185   1.408       .  A
C184        C759   1.411   1_545  A
C184        C392   1.481       .  S
C185        C186   1.407       .  A
C185        H189   1.083       .  S
C186        O190   1.371       .  S
H187        C758   1.084       .  S
O188        C471   1.373   1_554  S
O188        H192   0.992       .  S
O190        H191   0.992       .  S
C193        C194   1.403       .  A
C193        C198   1.410       .  A
C194        C195   1.389       .  A
C194        H199   1.084       .  S
C195        C196   1.408       .  A
C195        O200   1.373       .  S
C196        C197   1.407       .  A
C197        C198   1.409       .  A
C197        H201   1.083       .  S
C198        O202   1.371       .  S
O200        H204   0.992       .  S
O202        H203   0.992       .  S
C205        C206   1.405       .  A
C205        C210   1.406       .  A
C206        C207   1.397       .  A
C206        H211   1.084       .  S
C207        C208   1.403       .  A
C207        O788   1.372       .  S
C208        C209   1.404       .  A
C209        C210   1.401       .  A
C209        H213   1.084       .  S
C210        O214   1.371       .  S
O212        C783   1.372       .  S
O212        H216   0.991       .  S
O214        H215   0.992       .  S
C217        C218   1.400       .  A
C217        C798   1.412       .  A
C218        C219   1.399       .  A
C218        H223   1.084       .  S
C219        C796   1.412       .  A
C219        O224   1.371       .  S
C220        C221   1.402       .  A
C220        C795   1.412   1_545  A
C221        C222   1.403       .  A
C221        H225   1.083       .  S
C222        C793   1.412   1_545  A
C222        O226   1.372       .  S
O224        H228   0.992       .  S
O226        H227   0.992       .  S
C229        C230   1.407       .  A
C229        C234   1.411       .  A
C230        C231   1.408       .  A
C230        H235   1.083       .  S
C231        C232   1.409       .  A
C231        O236   1.371       .  S
C232        C233   1.399       .  A
C233        C234   1.389       .  A
C233        H237   1.085       .  S
C234        O238   1.373       .  S
O236        H240   0.991       .  S
O238        H239   0.992       .  S
C241        C242   1.411       .  A
C241        C246   1.407       .  A
C242        C243   1.397       .  A
C242        H247   1.082       .  S
C243        C244   1.400       .  A
C243        O248   1.371       .  S
C244        C245   1.405       .  A
C245        C246   1.400       .  A
C245        H249   1.084       .  S
C246        O250   1.373       .  S
O248        H252   0.992       .  S
O250        H251   0.992       .  S
C253        C258   1.410       .  A
C253        C542   1.403       .  A
C253        C293   1.479       .  S
C254        C541   1.403       .  A
C254        C543   1.401       .  A
C254        H259   1.084       .  S
C255        C256   1.407       .  A
C255        C542   1.401       .  A
C255        O548   1.372   1_554  S
C256        C257   1.399       .  A
C257        C258   1.400       .  A
C257        H261   1.084       .  S
C258        O262   1.372       .  S
O260        C543   1.372       .  S
O260        H264   0.992       .  S
O262        H263   0.992       .  S
C265        C266   1.407       .  A
C265        C270   1.412   1_554  A
C266        C267   1.398       .  A
C266        H271   1.084       .  S
C267        C268   1.405       .  A
C267        O272   1.372       .  S
C268        C557   1.404   1_554  A
C268        C289   1.479       .  S
C269        C556   1.404       .  A
C269        C558   1.405       .  A
C269        H273   1.084       .  S
C270        C557   1.405       .  A
C270        O562   1.370       .  S
O272        H276   0.992       .  S
O274        C558   1.370       .  S
O274        H275   0.992       .  S
C277        C278   1.402       .  A
C277        C282   1.412       .  A
C278        C279   1.401       .  A
C278        H283   1.084       .  S
C279        C280   1.412       .  A
C279        O284   1.372       .  S
C280        C281   1.404       .  A
C281        C282   1.404       .  A
C281        H573   1.084       .  S
C282        O286   1.372       .  S
O284        H288   0.992       .  S
H285        C569   1.084       .  S
O286        H575   0.992       .  S
H287        O574   0.992       .  S
C289        C294   1.402       .  A
C290        C291   1.408       .  A
C290        H295   1.084       .  S
C291        C292   1.406       .  A
C291        C568   1.488       .  S
C292        H296   1.084       .  S
C293        C294   1.400       .  A
C294        H297   1.084       .  S
C298        C299   1.407       .  A
C298        C303   1.399       .  A
C298        C517   1.482       .  S
C299        C300   1.410       .  A
C299        H304   1.084       .  S
C300        C301   1.408       .  A
C300        C565   1.487       .  S
C301        C302   1.406       .  A
C301        H305   1.082       .  S
C302        C303   1.396       .  A
C302        C529   1.486       .  S
C303        H306   1.084       .  S
C307        C308   1.407       .  A
C307        C312   1.402       .  A
C307        C481   1.483       .  S
C308        C309   1.410       .  A
C308        H313   1.083       .  S
C309        C310   1.405       .  A
C309        C505   1.482       .  S
C310        C311   1.401       .  A
C310        H314   1.084       .  S
C311        C312   1.394       .  A
C311        C493   1.474       .  S
C312        H315   1.085       .  S
C316        C317   1.408       .  A
C316        C321   1.405       .  A
C316        C469   1.480       .  S
C317        C318   1.407       .  A
C317        H322   1.084       .  S
C318        C319   1.404       .  A
C318        C508   1.484       .  S
C319        C320   1.403       .  A
C319        H323   1.084       .  S
C320        C321   1.396       .  A
C320        C457   1.480       .  S
C321        H324   1.085       .  S
C325        C326   1.409       .  A
C325        C330   1.405       .  A
C325        C421   1.487       .  S
C326        C327   1.406   1_455  A
C326        H331   1.084       .  S
C327        C328   1.403   1_655  A
C327       C1597   1.488       .  S
C328        C329   1.405       .  A
C328        H332   1.084   1_455  S
C329        C330   1.400       .  A
C329        C433   1.479       .  S
C330        H333   1.083       .  S
C334        C335   1.409       .  A
C334        C339   1.405       .  A
C334        C409   1.490       .  S
C335        C336   1.405       .  A
C335        H340   1.083       .  S
C336        C337   1.403       .  A
C336        C448   1.487       .  S
C337        C338   1.406       .  A
C337        H341   1.084       .  S
C338        C339   1.402       .  A
C338        C397   1.487       .  S
C339        H342   1.081       .  S
O343        C354   1.293       .  A
O343      Eu1531   2.474   1_455  S
O344        C355   1.293       .  A
O344       Eu378   2.478       .  S
O345        C356   1.293       .  A
O345      Eu1503   2.476   1_455  S
O346        C357   1.295       .  A
O346       Eu351   2.483       .  S
O347        C357   1.284       .  A
O347       Eu381   2.416       .  S
O348        C356   1.287       .  A
O348       Eu956   2.429       .  S
O349        C355   1.287       .  A
O349       Eu351   2.431       .  S
O350        C354   1.291       .  A
O350      Eu1503   2.452   1_455  S
Eu351      O1497   2.476       .  S
Eu351      O1502   2.452       .  S
Eu351       O361   2.354       .  S
Eu351      O1505   2.350       .  S
Eu351       O352   2.339       .  S
Eu351       O359   2.362       .  S
O352       Eu381   2.339       .  S
O352       Eu378   2.339       .  S
O353      Eu1503   2.350   1_455  S
O353      Eu1531   2.353   1_455  S
O353       Eu956   2.350       .  S
C354        C553   1.488       .  S
C355        C400   1.469       .  S
C356        C484   1.476       .  S
C357        C532   1.467       .  S
H358        O359   0.966       .  S
O359      Eu2108   2.360       .  S
O359       Eu378   2.357       .  S
H360        O361   0.966       .  S
O361       Eu379   2.357       .  S
O361       Eu381   2.360       .  S
O362        C385   1.292       .  A
O362       Eu954   2.474       .  S
O363        C962   1.296       .  A
O364       C1539   1.291   1_455  A
O364       Eu380   2.464       .  S
O365        C388   1.292       .  A
O365       Eu381   2.472       .  S
O366       Eu381   2.474       .  S
O367        C966   1.295       .  A
O367       Eu380   2.484       .  S
O368       C1543   1.292       .  A
O368       Eu382   2.474       .  S
O369        C392   1.292       .  A
O369       Eu382   2.470       .  S
O370        C391   1.288       .  A
O370       Eu380   2.441       .  S
O371        C968   1.287       .  A
O371       Eu381   2.434       .  S
O372        C387   1.290       .  A
O372       Eu954   2.448       .  S
O373        C390   1.287       .  A
O373      Eu1531   2.426   1_455  S
O374        C389   1.289       .  A
O375        C388   1.287       .  A
O375       Eu378   2.436       .  S
O376        C385   1.287       .  A
O376       Eu382   2.428       .  S
O377        C386   1.286       .  A
Eu378       O938   2.474       .  S
Eu378       O948   2.448       .  S
Eu378       O396   2.359       .  S
Eu378       O960   2.354       .  S
Eu379      O1495   2.474       .  S
Eu379      O1525   2.426       .  S
Eu379      O1505   2.353       .  S
Eu379       O383   2.353       .  S
Eu379       O970   2.345       .  S
Eu380       O924   2.429   1_545  S
Eu380       O929   2.350   1_545  S
Eu380      O2087   2.360   1_445  S
Eu380      O1546   2.341   1_455  S
Eu380      O1536   2.354   1_455  S
Eu381       O383   2.347       .  S
Eu381       O396   2.349       .  S
Eu382       O959   2.354   1_545  S
Eu382       O394   2.341       .  S
Eu382       O972   2.349       .  S
Eu382       O384   2.352       .  S
O383       Eu958   2.354       .  S
O384       Eu954   2.354       .  S
O384      Eu1532   2.354       .  S
C385        C520   1.471       .  S
C386        C436   1.480       .  S
C386        O939   1.296       .  A
C387        C424   1.471       .  S
C387       O1516   1.291       .  A
C388        C496   1.463       .  S
C389        C412   1.472       .  S
C390        C748   1.480       .  S
C390        O943   1.295       .  A
C391        C544   1.466       .  S
C391       O1520   1.292   1_455  A
C392        O947   1.287   1_545  A
H393       O1546   0.965   1_455  S
O394       Eu955   2.345   1_545  S
O394      Eu1532   2.341       .  S
O394       H1545   0.965       .  S
H395        O972   0.966       .  S
O396       Eu958   2.349       .  S
O396        H971   0.966       .  S
C397        C398   1.404       .  A
C397        C402   1.415       .  A
C398        C399   1.397       .  A
C398        H403   1.084       .  S
C399        C400   1.407       .  A
C399        O404   1.373       .  S
C400        C401   1.399       .  A
C401        C402   1.403       .  A
C401        H405   1.084       .  S
C402        O406   1.372       .  S
O404        H408   0.992       .  S
O406        H407   0.992       .  S
C409        C410   1.404       .  A
C409        C414   1.416       .  A
C410        C411   1.394       .  A
C410        H415   1.083       .  S
C411        C412   1.406       .  A
C411        O416   1.371       .  S
C412        C413   1.400       .  A
C413        C414   1.407       .  A
C413        H417   1.084       .  S
C414        O418   1.373       .  S
O416        H420   0.992       .  S
O418        H419   0.992       .  S
C421        C422   1.406   1_455  A
C421        C426   1.413       .  A
C422       C1575   1.396       .  A
C422        H427   1.083       .  S
C423       C1574   1.396       .  A
C423        C424   1.406       .  A
C423        O428   1.372       .  S
C424       C1577   1.402       .  A
C425       C1576   1.402       .  A
C425        C426   1.404       .  A
C425        H429   1.084       .  S
C426        O430   1.373       .  S
O428        H432   0.992       .  S
O430        H431   0.992       .  S
C433       C1586   1.399   1_455  A
C433        C438   1.410       .  A
C434       C1585   1.399       .  A
C434        C435   1.392       .  A
C434        H439   1.084       .  S
C435        C436   1.413       .  A
C435        O440   1.372       .  S
C436       C1589   1.406       .  A
C437       C1588   1.406   1_455  A
C437        C438   1.406       .  A
C437        H441   1.083       .  S
C438        O442   1.371       .  S
O440        H444   0.992       .  S
O442        H443   0.992       .  S
C445       C1598   1.405       .  A
C445        C450   1.412       .  A
C445       C1479   1.488       .  S
C446       C1597   1.405   1_455  A
C446       C1599   1.403   1_455  A
C446        H451   1.084       .  S
C447       C1598   1.403       .  A
C447        C448   1.411       .  A
C447       O1604   1.372       .  S
C448        C449   1.404       .  A
C449        C450   1.400       .  A
C449        H453   1.084       .  S
C450        O454   1.372       .  S
O452       C1599   1.372   1_455  S
O452        H456   0.992       .  S
O454        H455   0.992       .  S
C457        C458   1.407       .  A
C457        C462   1.406   1_545  A
C458        H463   1.083       .  S
C459        O464   1.371       .  S
C460       C1037   1.404   1_545  A
C460        C678   1.480   1_556  S
C461       C1036   1.404       .  A
C461       C1038   1.392       .  A
C461        H465   1.084       .  S
C462       C1037   1.392       .  A
C462       O1042   1.372       .  S
O464        H468   0.992       .  S
O466       C1038   1.372       .  S
O466        H467   0.992       .  S
C469        C470   1.401       .  A
C469        C474   1.408       .  A
C470       C1047   1.391   1_545  A
C470       H1051   1.084   1_545  S
C471       C1046   1.391       .  A
C471       C1048   1.411       .  A
C472       C1047   1.411   1_545  A
C472        C473   1.408       .  A
C473        C474   1.407       .  A
C473        H477   1.083       .  S
C474        O478   1.371       .  S
H475       C1046   1.084       .  S
O476        H480   0.992       .  S
O478        H479   0.992       .  S
C481        C482   1.403       .  A
C481        C486   1.410       .  A
C482        C483   1.389       .  A
C482        H487   1.084       .  S
C483        C484   1.408       .  A
C483        O488   1.373       .  S
C484        C485   1.407       .  A
C485        C486   1.409       .  A
C485        H489   1.083       .  S
C486        O490   1.371       .  S
O488        H492   0.992       .  S
O490        H491   0.992       .  S
C493        C494   1.405       .  A
C493        C498   1.406       .  A
C494        C495   1.397       .  A
C494        H499   1.084       .  S
C495        C496   1.403       .  A
C495       O1076   1.372       .  S
C496        C497   1.404       .  A
C497        C498   1.401       .  A
C497        H501   1.084       .  S
C498        O502   1.371       .  S
O500       C1071   1.372       .  S
O500        H504   0.991       .  S
O502        H503   0.992       .  S
C505        C506   1.400       .  A
C505       C1086   1.412       .  A
C506        C507   1.399       .  A
C506        H511   1.084       .  S
C507       C1084   1.412       .  A
C507        O512   1.371       .  S
C508       C1083   1.412   1_545  A
C508        C509   1.402       .  A
C509        C510   1.403       .  A
C509        H513   1.083       .  S
C510       C1081   1.412   1_545  A
C510        O514   1.372       .  S
O512        H516   0.992       .  S
O514        H515   0.992       .  S
C517        C518   1.407       .  A
C517        C522   1.411       .  A
C518        C519   1.408       .  A
C518        H523   1.083       .  S
C519        C520   1.409       .  A
C519        O524   1.371       .  S
C520        C521   1.399       .  A
C521        C522   1.389       .  A
C521        H525   1.085       .  S
C522        O526   1.373       .  S
O524        H528   0.991       .  S
O526        H527   0.992       .  S
C529        C530   1.411       .  A
C529        C534   1.407       .  A
C530        C531   1.397       .  A
C530        H535   1.082       .  S
C531        C532   1.400       .  A
C531        O536   1.371       .  S
C532        C533   1.405       .  A
C533        C534   1.400       .  A
C533        H537   1.084       .  S
C534        O538   1.373       .  S
O536        H540   0.992       .  S
O538        H539   0.992       .  S
C541        C546   1.410       .  A
C542        H547   1.084   1_554  S
C543        C544   1.407       .  A
C544        C545   1.399       .  A
C545        C546   1.400       .  A
C545        H549   1.084       .  S
C546        O550   1.372       .  S
O548        H552   0.992       .  S
O550        H551   0.992       .  S
C553        C554   1.407       .  A
C553        C558   1.412       .  A
C554        C555   1.398       .  A
C554        H559   1.084       .  S
C555        C556   1.405       .  A
C555        O560   1.372       .  S
C557        H561   1.084       .  S
O560        H564   0.992       .  S
O562        H563   0.992       .  S
C565        C566   1.402       .  A
C565        C570   1.412       .  A
C566        C567   1.401       .  A
C566        H571   1.084       .  S
C567        C568   1.412       .  A
C567        O572   1.372       .  S
C568        C569   1.404       .  A
C569        C570   1.404       .  A
C570        O574   1.372       .  S
O572        H576   0.992       .  S
C577        C866   1.407       .  A
C577        C582   1.402       .  A
C577       C1132   1.479       .  S
C578        C865   1.407       .  A
C578        C579   1.408       .  A
C578        H583   1.084       .  S
C579        C580   1.406       .  A
C579        C856   1.488       .  S
C580        C869   1.403       .  A
C580        H584   1.084       .  S
C581        C868   1.403       .  A
C581        C582   1.400       .  A
C581       C1117   1.479       .  S
C582        H585   1.084       .  S
C586        C587   1.407       .  A
C586        C591   1.399       .  A
C586        C805   1.482       .  S
C587        C588   1.410       .  A
C587        H592   1.084       .  S
C588        C589   1.408       .  A
C588        C853   1.487       .  S
C589        C590   1.406       .  A
C589        H593   1.082       .  S
C590        C591   1.396       .  A
C590        C817   1.486       .  S
C591        H594   1.084       .  S
C595        C596   1.407       .  A
C595        C600   1.402       .  A
C595        C769   1.483       .  S
C596        C597   1.410       .  A
C596        H601   1.083       .  S
C597        C598   1.405       .  A
C597        C793   1.482       .  S
C598        C599   1.401       .  A
C598        H602   1.084       .  S
C599        C600   1.394       .  A
C599        C781   1.474       .  S
C600        H603   1.085       .  S
C604        C605   1.408       .  A
C604        C609   1.405       .  A
C604        C757   1.480       .  S
C605        C606   1.407       .  A
C605        H610   1.084       .  S
C606        C607   1.404       .  A
C606        C796   1.484       .  S
C607        C608   1.403       .  A
C607        H611   1.084       .  S
C608        C609   1.396       .  A
C608        C745   1.480       .  S
C609        H612   1.085       .  S
C613        C614   1.409       .  A
C613        C618   1.405       .  A
C613        C709   1.487       .  S
C614        C615   1.406   1_455  A
C614        H619   1.084       .  S
C615        C616   1.403   1_655  A
C615       C1885   1.488       .  S
C616        C617   1.405       .  A
C616        H620   1.084   1_455  S
C617        C618   1.400       .  A
C617        C721   1.479       .  S
C618        H621   1.083       .  S
C622        C623   1.409       .  A
C622        C627   1.405       .  A
C622        C697   1.490       .  S
C623        C624   1.405       .  A
C623        H628   1.083       .  S
C624        C625   1.403       .  A
C624        C736   1.487       .  S
C625        C626   1.406       .  A
C625        H629   1.084       .  S
C626        C627   1.402       .  A
C626        C685   1.487       .  S
C627        H630   1.081       .  S
O631        C642   1.293       .  A
O631      Eu1819   2.474   1_455  S
O632        C643   1.293       .  A
O632       Eu666   2.478   1_565  S
O633        C644   1.293       .  A
O633      Eu1791   2.476   1_455  S
O634        C645   1.295       .  A
O634       Eu639   2.483       .  S
O635        C645   1.284       .  A
O635       Eu669   2.416       .  S
O636        C644   1.287       .  A
O637        C643   1.287       .  A
O637       Eu639   2.431       .  S
O638        C642   1.291       .  A
O638      Eu1791   2.452   1_455  S
Eu639      O1785   2.476       .  S
Eu639      O1790   2.452       .  S
Eu639       O649   2.354       .  S
Eu639      O1793   2.350       .  S
Eu639       O640   2.339       .  S
Eu639       O647   2.362       .  S
O640       Eu669   2.339       .  S
O640       Eu666   2.339   1_565  S
O641      Eu1791   2.350   1_455  S
O641      Eu1819   2.353   1_455  S
C642        C841   1.488       .  S
C643        C688   1.469       .  S
C644        C772   1.476       .  S
C645        C820   1.467       .  S
H646        O647   0.966       .  S
O647      Eu1244   2.360   1_565  S
O647       Eu666   2.357   1_565  S
H648        O649   0.966       .  S
O649       Eu667   2.357       .  S
O649       Eu669   2.360       .  S
O650        C673   1.292       .  A
O651       Eu955   2.490   1_545  S
O652       C1827   1.291   1_455  A
O652       Eu668   2.464       .  S
O653        C676   1.292       .  A
O653       Eu669   2.472       .  S
O654        C965   1.293       .  A
O654       Eu669   2.474   1_556  S
O655       Eu668   2.484       .  S
O656       C1831   1.292       .  A
O656       Eu670   2.474       .  S
O657        C680   1.292   1_554  A
O657       Eu670   2.470       .  S
O658        C679   1.288       .  A
O658       Eu668   2.441       .  S
O659       Eu669   2.434       .  S
O660        C675   1.290       .  A
O661        C678   1.287   1_566  A
O661      Eu1819   2.426   1_456  S
O662        C677   1.289       .  A
O662       Eu955   2.439       .  S
O663        C676   1.287       .  A
O663       Eu666   2.436   1_565  S
O664        C673   1.287       .  A
O664       Eu670   2.428       .  S
O665        C674   1.286       .  A
O665       Eu958   2.421       .  S
Eu666       O684   2.359       .  S
Eu667      O1783   2.474       .  S
Eu667       O939   2.490   1_564  S
Eu667      O1813   2.426   1_554  S
Eu667       O950   2.439   1_554  S
Eu667      O1793   2.353       .  S
Eu667       O671   2.353       .  S
Eu668      O1223   2.360   1_455  S
Eu668      O1834   2.341   1_455  S
Eu668      O1824   2.354   1_455  S
Eu669       O671   2.347       .  S
Eu669       O684   2.349   1_565  S
Eu670       O953   2.421   1_554  S
Eu670       O682   2.341       .  S
Eu670       O672   2.352       .  S
O672      Eu1820   2.354       .  S
C673        C808   1.471       .  S
C674        C724   1.480       .  S
C675        C712   1.471       .  S
C675       O1804   1.291       .  A
C676        C784   1.463       .  S
C677        C700   1.472       .  S
C677        O942   1.293       .  A
C679        C832   1.466       .  S
C679       O1808   1.292   1_455  A
C680       C1048   1.481       .  S
H681       O1834   0.965   1_455  S
O682      Eu1820   2.341       .  S
O682       H1833   0.965       .  S
C685        C686   1.404       .  A
C685        C690   1.415       .  A
C686        C687   1.397       .  A
C686        H691   1.084       .  S
C687        C688   1.407       .  A
C687        O692   1.373       .  S
C688        C689   1.399       .  A
C689        C690   1.403       .  A
C689        H693   1.084       .  S
C690        O694   1.372       .  S
O692        H696   0.992       .  S
O694        H695   0.992       .  S
C697        C698   1.404       .  A
C697        C702   1.416       .  A
C698        C699   1.394       .  A
C698        H703   1.083       .  S
C699        C700   1.406       .  A
C699        O704   1.371       .  S
C700        C701   1.400       .  A
C701        C702   1.407       .  A
C701        H705   1.084       .  S
C702        O706   1.373       .  S
O704        H708   0.992       .  S
O706        H707   0.992       .  S
C709        C710   1.406   1_455  A
C709        C714   1.413       .  A
C710       C1863   1.396       .  A
C710        H715   1.083       .  S
C711       C1862   1.396       .  A
C711        C712   1.406       .  A
C711        O716   1.372       .  S
C712       C1865   1.402       .  A
C713       C1864   1.402       .  A
C713        C714   1.404       .  A
C713        H717   1.084       .  S
C714        O718   1.373       .  S
O716        H720   0.992       .  S
O718        H719   0.992       .  S
C721       C1874   1.399   1_455  A
C721        C726   1.410       .  A
C722       C1873   1.399       .  A
C722        C723   1.392       .  A
C722        H727   1.084       .  S
C723        C724   1.413       .  A
C723        O728   1.372       .  S
C724       C1877   1.406       .  A
C725       C1876   1.406   1_455  A
C725        C726   1.406       .  A
C725        H729   1.083       .  S
C726        O730   1.371       .  S
O728        H732   0.992       .  S
O730        H731   0.992       .  S
C733       C1886   1.405       .  A
C733        C738   1.412       .  A
C733       C1767   1.488       .  S
C734       C1885   1.405   1_455  A
C734       C1887   1.403   1_455  A
C734        H739   1.084       .  S
C735       C1886   1.403       .  A
C735        C736   1.411       .  A
C735       O1892   1.372       .  S
C736        C737   1.404       .  A
C737        C738   1.400       .  A
C737        H741   1.084       .  S
C738        O742   1.372       .  S
O740       C1887   1.372   1_455  S
O740        H744   0.992       .  S
O742        H743   0.992       .  S
C745        C746   1.407       .  A
C745        C750   1.406       .  A
C746       C1035   1.407       .  A
C746        H751   1.083       .  S
C747       C1034   1.407       .  A
C747       C1036   1.411       .  A
C747        O752   1.371   1_556  S
C748       C1035   1.411       .  A
C749        H753   1.084       .  S
O752        H756   0.992       .  S
O754        H755   0.992       .  S
C757        C758   1.401       .  A
C757        C762   1.408       .  A
C759       O1052   1.373       .  S
C760        C761   1.408       .  A
C760        C968   1.481       .  S
C761        C762   1.407       .  A
C761        H765   1.083       .  S
C762        O766   1.371       .  S
O764       C1047   1.373   1_554  S
O764        H768   0.992       .  S
O766        H767   0.992       .  S
C769        C770   1.403       .  A
C769        C774   1.410       .  A
C770        C771   1.389       .  A
C770        H775   1.084       .  S
C771        C772   1.408       .  A
C771        O776   1.373       .  S
C772        C773   1.407       .  A
C773        C774   1.409       .  A
C773        H777   1.083       .  S
C774        O778   1.371       .  S
O776        H780   0.992   1_565  S
O778        H779   0.992       .  S
C781        C782   1.405       .  A
C781        C786   1.406       .  A
C782        C783   1.397       .  A
C782        H787   1.084       .  S
C783        C784   1.403       .  A
C784        C785   1.404       .  A
C785        C786   1.401       .  A
C785        H789   1.084       .  S
C786        O790   1.371       .  S
O788        H792   0.991       .  S
O790        H791   0.992       .  S
C793        C794   1.400       .  A
C794        C795   1.399       .  A
C794        H799   1.084       .  S
C795        O800   1.371       .  S
C796        C797   1.402       .  A
C797        C798   1.403       .  A
C797        H801   1.083       .  S
C798        O802   1.372       .  S
O800        H804   0.992       .  S
O802        H803   0.992       .  S
C805        C806   1.407       .  A
C805        C810   1.411       .  A
C806        C807   1.408       .  A
C806        H811   1.083       .  S
C807        C808   1.409       .  A
C807        O812   1.371       .  S
C808        C809   1.399       .  A
C809        C810   1.389       .  A
C809        H813   1.085       .  S
C810        O814   1.373       .  S
O812        H816   0.991       .  S
O814        H815   0.992       .  S
C817        C818   1.411       .  A
C817        C822   1.407       .  A
C818        C819   1.397       .  A
C818        H823   1.082       .  S
C819        C820   1.400       .  A
C819        O824   1.371       .  S
C820        C821   1.405       .  A
C821        C822   1.400       .  A
C821        H825   1.084       .  S
C822        O826   1.373       .  S
O824        H828   0.992       .  S
O826        H827   0.992       .  S
C829       C1118   1.403       .  A
C829        C834   1.410       .  A
C829        C869   1.479       .  S
C830       C1117   1.403       .  A
C830       C1119   1.401       .  A
C830        H835   1.084       .  S
C831       C1118   1.401       .  A
C831        C832   1.407       .  A
C831       O1124   1.372   1_554  S
C832        C833   1.399       .  A
C833        C834   1.400       .  A
C833        H837   1.084       .  S
C834        O838   1.372       .  S
O836       C1119   1.372       .  S
O836        H840   0.992       .  S
O838        H839   0.992       .  S
C841        C842   1.407       .  A
C841        C846   1.412   1_554  A
C842        C843   1.398       .  A
C842        H847   1.084       .  S
C843        C844   1.405       .  A
C843        O848   1.372       .  S
C844       C1133   1.404   1_554  A
C844        C865   1.479       .  S
C845       C1132   1.404       .  A
C845       C1134   1.405       .  A
C845        H849   1.084       .  S
C846       C1133   1.405       .  A
C846       O1138   1.370       .  S
O848        H852   0.992       .  S
O850       C1134   1.370       .  S
O850        H851   0.992       .  S
C853        C854   1.402       .  A
C853        C858   1.412       .  A
C854        C855   1.401       .  A
C854        H859   1.084       .  S
C855        C856   1.412       .  A
C855        O860   1.372       .  S
C856        C857   1.404       .  A
C857        C858   1.404       .  A
C857       H1149   1.084       .  S
C858        O862   1.372       .  S
O860        H864   0.992       .  S
H861       C1145   1.084       .  S
O862       H1151   0.992       .  S
H863       O1150   0.992       .  S
C865        C870   1.402       .  A
C866        C867   1.408       .  A
C866        H871   1.084       .  S
C867        C868   1.406       .  A
C867       C1144   1.488       .  S
C868        H872   1.084       .  S
C869        C870   1.400       .  A
C870        H873   1.084       .  S
C874        C875   1.407       .  A
C874        C879   1.399       .  A
C874       C1093   1.482       .  S
C875        C876   1.410       .  A
C875        H880   1.084       .  S
C876        C877   1.408       .  A
C876       C1141   1.487       .  S
C877        C878   1.406       .  A
C877        H881   1.082       .  S
C878        C879   1.396       .  A
C878       C1105   1.486       .  S
C879        H882   1.084       .  S
C883        C884   1.407       .  A
C883        C888   1.402       .  A
C883       C1057   1.483       .  S
C884        C885   1.410       .  A
C884        H889   1.083       .  S
C885        C886   1.405       .  A
C885       C1081   1.482       .  S
C886        C887   1.401       .  A
C886        H890   1.084       .  S
C887        C888   1.394       .  A
C887       C1069   1.474       .  S
C888        H891   1.085       .  S
C892        C893   1.408       .  A
C892        C897   1.405       .  A
C892       C1045   1.480       .  S
C893        C894   1.407       .  A
C893        H898   1.084       .  S
C894        C895   1.404       .  A
C894       C1084   1.484       .  S
C895        C896   1.403       .  A
C895        H899   1.084       .  S
C896        C897   1.396       .  A
C896       C1033   1.480       .  S
C897        H900   1.085       .  S
C901        C902   1.409       .  A
C901        C906   1.405       .  A
C901        C997   1.487       .  S
C902        C903   1.406   1_455  A
C902        H907   1.084       .  S
C903        C904   1.403   1_655  A
C903       C2173   1.488       .  S
C904        C905   1.405       .  A
C904        H908   1.084   1_455  S
C905        C906   1.400       .  A
C905       C1009   1.479       .  S
C906        H909   1.083       .  S
C910        C911   1.409       .  A
C910        C915   1.405       .  A
C910        C985   1.490       .  S
C911        C912   1.405       .  A
C911        H916   1.083       .  S
C912        C913   1.403       .  A
C912       C1024   1.487       .  S
C913        C914   1.406       .  A
C913        H917   1.084       .  S
C914        C915   1.402       .  A
C914        C973   1.487       .  S
C915        H918   1.081       .  S
O919        C930   1.293       .  A
O919      Eu2107   2.474   1_455  S
O920        C931   1.293       .  A
O920       Eu954   2.478   1_565  S
O921        C932   1.293       .  A
O921      Eu2079   2.476   1_455  S
O922        C933   1.295       .  A
O922       Eu927   2.483       .  S
O923        C933   1.284       .  A
O923       Eu957   2.416       .  S
O924        C932   1.287       .  A
O925        C931   1.287       .  A
O925       Eu927   2.431       .  S
O926        C930   1.291       .  A
O926      Eu2079   2.452   1_455  S
Eu927      O2073   2.476       .  S
Eu927      O2078   2.452       .  S
Eu927       O937   2.354       .  S
Eu927      O2081   2.350       .  S
Eu927       O928   2.339       .  S
Eu927       O935   2.362       .  S
O928       Eu957   2.339       .  S
O928       Eu954   2.339   1_565  S
O929      Eu2079   2.350   1_455  S
O929      Eu2107   2.353   1_455  S
C930       C1129   1.488       .  S
C931        C976   1.469       .  S
C932       C1060   1.476       .  S
C933       C1108   1.467       .  S
H934        O935   0.966       .  S
O935      Eu1532   2.360   1_565  S
O935       Eu954   2.357   1_565  S
H936        O937   0.966       .  S
O937       Eu955   2.357       .  S
O937       Eu957   2.360       .  S
O938        C961   1.292       .  A
O940       C2115   1.291   1_455  A
O940       Eu956   2.464       .  S
O941        C964   1.292       .  A
O941       Eu957   2.472       .  S
O942       Eu957   2.474       .  S
O943       Eu956   2.484       .  S
O944       C2119   1.292       .  A
O944       Eu958   2.474       .  S
O945        C968   1.292       .  A
O945       Eu958   2.470       .  S
O946        C967   1.288       .  A
O946       Eu956   2.441       .  S
O947       Eu957   2.434       .  S
O948        C963   1.290       .  A
O949        C966   1.287   1_565  A
O949      Eu2107   2.426   1_455  S
O950        C965   1.289       .  A
O951        C964   1.287       .  A
O951       Eu954   2.436   1_565  S
O952        C961   1.287       .  A
O952       Eu958   2.428       .  S
O953        C962   1.286       .  A
Eu954       O972   2.359       .  S
Eu955      O2071   2.474       .  S
Eu955      O2101   2.426       .  S
Eu955      O2081   2.353       .  S
Eu955       O959   2.353       .  S
Eu956      O1511   2.360   1_455  S
Eu956      O2122   2.341   1_455  S
Eu956      O2112   2.354   1_455  S
Eu957       O959   2.347       .  S
Eu957       O972   2.349   1_565  S
Eu958       O970   2.341       .  S
Eu958       O960   2.352       .  S
O960      Eu2108   2.354       .  S
C961       C1096   1.471       .  S
C962       C1012   1.480       .  S
C963       C1000   1.471       .  S
C963       O2092   1.291       .  A
C964       C1072   1.463       .  S
C965        C988   1.472       .  S
C967       C1120   1.466       .  S
C967       O2096   1.292   1_455  A
H969       O2122   0.965   1_455  S
O970      Eu2108   2.341       .  S
O970       H2121   0.965       .  S
C973        C974   1.404       .  A
C973        C978   1.415       .  A
C974        C975   1.397       .  A
C974        H979   1.084       .  S
C975        C976   1.407       .  A
C975        O980   1.373       .  S
C976        C977   1.399       .  A
C977        C978   1.403       .  A
C977        H981   1.084       .  S
C978        O982   1.372       .  S
O980        H984   0.992       .  S
O982        H983   0.992       .  S
C985        C986   1.404       .  A
C985        C990   1.416       .  A
C986        C987   1.394       .  A
C986        H991   1.083       .  S
C987        C988   1.406       .  A
C987        O992   1.371       .  S
C988        C989   1.400       .  A
C989        C990   1.407       .  A
C989        H993   1.084       .  S
C990        O994   1.373       .  S
O992        H996   0.992       .  S
O994        H995   0.992       .  S
C997        C998   1.406   1_455  A
C997       C1002   1.413       .  A
C998       C2151   1.396       .  A
C998       H1003   1.083       .  S
C999       C2150   1.396       .  A
C999       C1000   1.406       .  A
C999       O1004   1.372       .  S
C1000      C2153   1.402       .  A
C1001      C2152   1.402       .  A
C1001      C1002   1.404       .  A
C1001      H1005   1.084       .  S
C1002      O1006   1.373       .  S
O1004      H1008   0.992       .  S
O1006      H1007   0.992       .  S
C1009      C2162   1.399   1_455  A
C1009      C1014   1.410       .  A
C1010      C2161   1.399       .  A
C1010      C1011   1.392       .  A
C1010      H1015   1.084       .  S
C1011      C1012   1.413       .  A
C1011      O1016   1.372       .  S
C1012      C2165   1.406       .  A
C1013      C2164   1.406   1_455  A
C1013      C1014   1.406       .  A
C1013      H1017   1.083       .  S
C1014      O1018   1.371       .  S
O1016      H1020   0.992       .  S
O1018      H1019   0.992       .  S
C1021      C2174   1.405       .  A
C1021      C1026   1.412       .  A
C1021      C2055   1.488       .  S
C1022      C2173   1.405   1_455  A
C1022      C2175   1.403   1_455  A
C1022      H1027   1.084       .  S
C1023      C2174   1.403       .  A
C1023      C1024   1.411       .  A
C1023      O2180   1.372       .  S
C1024      C1025   1.404       .  A
C1025      C1026   1.400       .  A
C1025      H1029   1.084       .  S
C1026      O1030   1.372       .  S
O1028      C2175   1.372   1_455  S
O1028      H1032   0.992       .  S
O1030      H1031   0.992       .  S
C1033      C1034   1.407       .  A
C1033      C1038   1.406       .  A
C1034      H1039   1.083       .  S
C1035      O1040   1.371       .  S
C1037      H1041   1.084       .  S
O1040      H1044   0.992       .  S
O1042      H1043   0.992       .  S
C1045      C1046   1.401       .  A
C1045      C1050   1.408       .  A
C1048      C1049   1.408       .  A
C1049      C1050   1.407       .  A
C1049      H1053   1.083       .  S
C1050      O1054   1.371       .  S
O1052      H1056   0.992       .  S
O1054      H1055   0.992       .  S
C1057      C1058   1.403       .  A
C1057      C1062   1.410       .  A
C1058      C1059   1.389       .  A
C1058      H1063   1.084       .  S
C1059      C1060   1.408       .  A
C1059      O1064   1.373       .  S
C1060      C1061   1.407       .  A
C1061      C1062   1.409       .  A
C1061      H1065   1.083       .  S
C1062      O1066   1.371       .  S
O1064      H1068   0.992   1_565  S
O1066      H1067   0.992       .  S
C1069      C1070   1.405       .  A
C1069      C1074   1.406       .  A
C1070      C1071   1.397       .  A
C1070      H1075   1.084       .  S
C1071      C1072   1.403       .  A
C1072      C1073   1.404       .  A
C1073      C1074   1.401       .  A
C1073      H1077   1.084       .  S
C1074      O1078   1.371       .  S
O1076      H1080   0.991       .  S
O1078      H1079   0.992       .  S
C1081      C1082   1.400       .  A
C1082      C1083   1.399       .  A
C1082      H1087   1.084       .  S
C1083      O1088   1.371       .  S
C1084      C1085   1.402       .  A
C1085      C1086   1.403       .  A
C1085      H1089   1.083       .  S
C1086      O1090   1.372       .  S
O1088      H1092   0.992       .  S
O1090      H1091   0.992       .  S
C1093      C1094   1.407       .  A
C1093      C1098   1.411       .  A
C1094      C1095   1.408       .  A
C1094      H1099   1.083       .  S
C1095      C1096   1.409       .  A
C1095      O1100   1.371       .  S
C1096      C1097   1.399       .  A
C1097      C1098   1.389       .  A
C1097      H1101   1.085       .  S
C1098      O1102   1.373       .  S
O1100      H1104   0.991       .  S
O1102      H1103   0.992       .  S
C1105      C1106   1.411       .  A
C1105      C1110   1.407       .  A
C1106      C1107   1.397       .  A
C1106      H1111   1.082       .  S
C1107      C1108   1.400       .  A
C1107      O1112   1.371       .  S
C1108      C1109   1.405       .  A
C1109      C1110   1.400       .  A
C1109      H1113   1.084       .  S
C1110      O1114   1.373       .  S
O1112      H1116   0.992       .  S
O1114      H1115   0.992       .  S
C1117      C1122   1.410       .  A
C1118      H1123   1.084   1_554  S
C1119      C1120   1.407       .  A
C1120      C1121   1.399       .  A
C1121      C1122   1.400       .  A
C1121      H1125   1.084       .  S
C1122      O1126   1.372       .  S
O1124      H1128   0.992       .  S
O1126      H1127   0.992       .  S
C1129      C1130   1.407       .  A
C1129      C1134   1.412       .  A
C1130      C1131   1.398       .  A
C1130      H1135   1.084       .  S
C1131      C1132   1.405       .  A
C1131      O1136   1.372       .  S
C1133      H1137   1.084       .  S
O1136      H1140   0.992       .  S
O1138      H1139   0.992       .  S
C1141      C1142   1.402       .  A
C1141      C1146   1.412       .  A
C1142      C1143   1.401       .  A
C1142      H1147   1.084       .  S
C1143      C1144   1.412       .  A
C1143      O1148   1.372       .  S
C1144      C1145   1.404       .  A
C1145      C1146   1.404       .  A
C1146      O1150   1.372       .  S
O1148      H1152   0.992       .  S
C1153      C1442   1.407       .  A
C1153      C1158   1.402       .  A
C1153      C1708   1.479       .  S
C1154      C1441   1.407       .  A
C1154      C1155   1.408       .  A
C1154      H1159   1.084       .  S
C1155      C1156   1.406       .  A
C1155      C1432   1.488       .  S
C1156      C1445   1.403       .  A
C1156      H1160   1.084       .  S
C1157      C1444   1.403       .  A
C1157      C1158   1.400       .  A
C1157      C1693   1.479       .  S
C1158      H1161   1.084       .  S
C1162      C1163   1.407       .  A
C1162      C1167   1.399       .  A
C1162      C1381   1.482       .  S
C1163      C1164   1.410       .  A
C1163      H1168   1.084       .  S
C1164      C1165   1.408       .  A
C1164      C1429   1.487       .  S
C1165      C1166   1.406       .  A
C1165      H1169   1.082       .  S
C1166      C1167   1.396       .  A
C1166      C1393   1.486       .  S
C1167      H1170   1.084       .  S
C1171      C1172   1.407       .  A
C1171      C1176   1.402       .  A
C1171      C1345   1.483       .  S
C1172      C1173   1.410       .  A
C1172      H1177   1.083       .  S
C1173      C1174   1.405       .  A
C1173      C1369   1.482       .  S
C1174      C1175   1.401       .  A
C1174      H1178   1.084       .  S
C1175      C1176   1.394       .  A
C1175      C1357   1.474       .  S
C1176      H1179   1.085       .  S
C1180      C1181   1.408       .  A
C1180      C1185   1.405       .  A
C1180      C1333   1.480       .  S
C1181      C1182   1.407       .  A
C1181      H1186   1.084       .  S
C1182      C1183   1.404       .  A
C1182      C1372   1.484       .  S
C1183      C1184   1.403       .  A
C1183      H1187   1.084       .  S
C1184      C1185   1.396       .  A
C1184      C1321   1.480       .  S
C1185      H1188   1.085       .  S
C1189      C1190   1.409       .  A
C1189      C1194   1.405       .  A
C1189      C1285   1.487       .  S
C1190      C1191   1.406       .  A
C1190      H1195   1.084       .  S
C1191      C1192   1.403       .  A
C1192      C1193   1.405       .  A
C1192      H1196   1.084       .  S
C1193      C1194   1.400       .  A
C1193      C1297   1.479       .  S
C1194      H1197   1.083       .  S
C1198      C1199   1.409       .  A
C1198      C1203   1.405       .  A
C1198      C1273   1.490       .  S
C1199      C1200   1.405       .  A
C1199      H1204   1.083       .  S
C1200      C1201   1.403       .  A
C1200      C1312   1.487       .  S
C1201      C1202   1.406       .  A
C1201      H1205   1.084       .  S
C1202      C1203   1.402       .  A
C1202      C1261   1.487       .  S
C1203      H1206   1.081       .  S
O1207      C1218   1.293       .  A
O1208      C1219   1.293       .  A
O1208     Eu1242   2.478       .  S
O1209      C1220   1.293       .  A
O1210      C1221   1.295       .  A
O1210     Eu1215   2.483       .  S
O1211      C1221   1.284       .  A
O1211     Eu1245   2.416       .  S
O1212      C1220   1.287       .  A
O1212     Eu1820   2.429       .  S
O1213      C1219   1.287       .  A
O1213     Eu1215   2.431       .  S
O1214      C1218   1.291       .  A
Eu1215     O1225   2.354       .  S
Eu1215     O1216   2.339       .  S
Eu1215     O1223   2.362       .  S
O1216     Eu1245   2.339       .  S
O1216     Eu1242   2.339       .  S
O1217     Eu1820   2.350       .  S
C1218      C1417   1.488       .  S
C1219      C1264   1.469       .  S
C1220      C1348   1.476       .  S
C1221      C1396   1.467       .  S
H1222      O1223   0.966       .  S
O1223     Eu1242   2.357       .  S
H1224      O1225   0.966       .  S
O1225     Eu1243   2.357       .  S
O1225     Eu1245   2.360       .  S
O1226      C1249   1.292       .  A
O1226     Eu1818   2.474       .  S
O1227      C1826   1.296       .  A
O1227     Eu1531   2.490       .  S
O1228     Eu1244   2.464       .  S
O1229      C1252   1.292       .  A
O1229     Eu1245   2.472       .  S
O1230      C1541   1.293       .  A
O1230     Eu1245   2.474   1_556  S
O1231      C1830   1.295       .  A
O1231     Eu1244   2.484       .  S
O1232     Eu1246   2.474       .  S
O1233      C1256   1.292   1_554  A
O1233     Eu1246   2.470       .  S
O1234      C1255   1.288       .  A
O1234     Eu1244   2.441       .  S
O1235      C1832   1.287   1_554  A
O1235     Eu1245   2.434       .  S
O1236      C1251   1.290       .  A
O1236     Eu1818   2.448       .  S
O1237      C1254   1.287   1_556  A
O1238      C1253   1.289       .  A
O1238     Eu1531   2.439       .  S
O1239      C1252   1.287       .  A
O1239     Eu1242   2.436       .  S
O1240      C1249   1.287       .  A
O1240     Eu1246   2.428       .  S
O1241      C1250   1.286       .  A
O1241     Eu1534   2.421       .  S
Eu1242     O1802   2.474       .  S
Eu1242     O1812   2.448       .  S
Eu1242     O1260   2.359       .  S
Eu1242     O1824   2.354       .  S
Eu1243     O1515   2.490   1_554  S
Eu1243     O1526   2.439   1_554  S
Eu1243     O1247   2.353       .  S
Eu1243     O1834   2.345       .  S
Eu1244     O1788   2.429   1_545  S
Eu1244     O1793   2.350   1_545  S
Eu1245     O1247   2.347       .  S
Eu1245     O1260   2.349       .  S
Eu1246     O1529   2.421   1_554  S
Eu1246     O1823   2.354   1_545  S
Eu1246     O1258   2.341       .  S
Eu1246     O1836   2.349       .  S
Eu1246     O1248   2.352       .  S
O1247     Eu1822   2.354       .  S
O1248     Eu1818   2.354       .  S
C1249      C1384   1.471       .  S
C1250      C1300   1.480       .  S
C1250      O1803   1.296       .  A
C1251      C1288   1.471   1_655  S
C1252      C1360   1.463       .  S
C1253      C1276   1.472       .  S
C1253      O1518   1.293       .  A
C1254      C2188   1.480   1_554  S
C1254      O1807   1.295       .  A
C1255      C1408   1.466       .  S
C1256      C1624   1.481       .  S
C1256      O1811   1.287   1_546  A
O1258     Eu1819   2.345   1_545  S
H1259      O1836   0.966       .  S
O1260     Eu1822   2.349       .  S
O1260      H1835   0.966       .  S
C1261      C1262   1.404       .  A
C1261      C1266   1.415       .  A
C1262      C1263   1.397       .  A
C1262      H1267   1.084       .  S
C1263      C1264   1.407       .  A
C1263      O1268   1.373       .  S
C1264      C1265   1.399       .  A
C1265      C1266   1.403       .  A
C1265      H1269   1.084       .  S
C1266      O1270   1.372       .  S
O1268      H1272   0.992       .  S
O1270      H1271   0.992       .  S
C1273      C1274   1.404       .  A
C1273      C1278   1.416       .  A
C1274      C1275   1.394       .  A
C1274      H1279   1.083       .  S
C1275      C1276   1.406       .  A
C1275      O1280   1.371       .  S
C1276      C1277   1.400       .  A
C1277      C1278   1.407       .  A
C1277      H1281   1.084       .  S
C1278      O1282   1.373       .  S
O1280      H1284   0.992       .  S
O1282      H1283   0.992       .  S
C1285      C1286   1.406       .  A
C1285      C1290   1.413       .  A
C1286      H1291   1.083       .  S
C1287      C1288   1.406   1_655  A
C1287      O1292   1.372       .  S
C1289      C1290   1.404       .  A
C1289      H1293   1.084       .  S
C1290      O1294   1.373       .  S
O1292      H1296   0.992       .  S
O1294      H1295   0.992       .  S
C1297      C1302   1.410       .  A
C1298      C1299   1.392       .  A
C1298      H1303   1.084       .  S
C1299      C1300   1.413       .  A
C1299      O1304   1.372       .  S
C1301      C1302   1.406       .  A
C1301      H1305   1.083       .  S
C1302      O1306   1.371       .  S
O1304      H1308   0.992       .  S
O1306      H1307   0.992       .  S
C1309      C1314   1.412       .  A
C1310      H1315   1.084       .  S
C1311      C1312   1.411       .  A
C1312      C1313   1.404       .  A
C1313      C1314   1.400       .  A
C1313      H1317   1.084       .  S
C1314      O1318   1.372       .  S
O1316      H1320   0.992       .  S
O1318      H1319   0.992       .  S
C1321      C1322   1.407       .  A
C1321      C1326   1.406   1_545  A
C1322      C1611   1.407       .  A
C1322      H1327   1.083       .  S
C1323      C1610   1.407       .  A
C1323      C1612   1.411       .  A
C1323      O1328   1.371   1_556  S
C1324      C1611   1.411       .  A
C1324      C1901   1.404   1_545  A
C1324      C2118   1.480       .  S
C1325      C1900   1.404       .  A
C1325      C1902   1.392       .  A
C1325      H1329   1.084       .  S
C1326      C1901   1.392       .  A
C1326      O1906   1.372       .  S
O1328      H1332   0.992       .  S
O1330      C1902   1.372       .  S
O1330      H1331   0.992       .  S
C1333      C1334   1.401       .  A
C1333      C1338   1.408       .  A
C1334      C1911   1.391   1_545  A
C1334      H1915   1.084   1_545  S
C1335      C1910   1.391       .  A
C1335      C1912   1.411       .  A
C1335      O1628   1.373       .  S
C1336      C1911   1.411   1_545  A
C1336      C1337   1.408       .  A
C1336      C1544   1.481       .  S
C1337      C1338   1.407       .  A
C1337      H1341   1.083       .  S
C1338      O1342   1.371       .  S
H1339      C1910   1.084       .  S
O1340      C1623   1.373   1_554  S
O1340      H1344   0.992       .  S
O1342      H1343   0.992       .  S
C1345      C1346   1.403       .  A
C1345      C1350   1.410       .  A
C1346      C1347   1.389       .  A
C1346      H1351   1.084       .  S
C1347      C1348   1.408       .  A
C1347      O1352   1.373       .  S
C1348      C1349   1.407       .  A
C1349      C1350   1.409       .  A
C1349      H1353   1.083       .  S
C1350      O1354   1.371       .  S
O1352      H1356   0.992       .  S
O1354      H1355   0.992       .  S
C1357      C1358   1.405       .  A
C1357      C1362   1.406       .  A
C1358      C1359   1.397       .  A
C1358      H1363   1.084       .  S
C1359      C1360   1.403       .  A
C1359      O1940   1.372       .  S
C1360      C1361   1.404       .  A
C1361      C1362   1.401       .  A
C1361      H1365   1.084       .  S
C1362      O1366   1.371       .  S
O1364      C1935   1.372       .  S
O1364      H1368   0.991       .  S
O1366      H1367   0.992       .  S
C1369      C1370   1.400       .  A
C1369      C1950   1.412       .  A
C1370      C1371   1.399       .  A
C1370      H1375   1.084       .  S
C1371      C1948   1.412       .  A
C1371      O1376   1.371       .  S
C1372      C1947   1.412   1_545  A
C1372      C1373   1.402       .  A
C1373      C1374   1.403       .  A
C1373      H1377   1.083       .  S
C1374      C1945   1.412   1_545  A
C1374      O1378   1.372       .  S
O1376      H1380   0.992       .  S
O1378      H1379   0.992       .  S
C1381      C1382   1.407       .  A
C1381      C1386   1.411       .  A
C1382      C1383   1.408       .  A
C1382      H1387   1.083       .  S
C1383      C1384   1.409       .  A
C1383      O1388   1.371       .  S
C1384      C1385   1.399       .  A
C1385      C1386   1.389       .  A
C1385      H1389   1.085       .  S
C1386      O1390   1.373       .  S
O1388      H1392   0.991       .  S
O1390      H1391   0.992       .  S
C1393      C1394   1.411       .  A
C1393      C1398   1.407       .  A
C1394      C1395   1.397       .  A
C1394      H1399   1.082       .  S
C1395      C1396   1.400       .  A
C1395      O1400   1.371       .  S
C1396      C1397   1.405       .  A
C1397      C1398   1.400       .  A
C1397      H1401   1.084       .  S
C1398      O1402   1.373       .  S
O1400      H1404   0.992       .  S
O1402      H1403   0.992       .  S
C1405      C1694   1.403       .  A
C1405      C1410   1.410       .  A
C1405      C1445   1.479       .  S
C1406      C1693   1.403       .  A
C1406      C1695   1.401       .  A
C1406      H1411   1.084       .  S
C1407      C1694   1.401       .  A
C1407      C1408   1.407       .  A
C1407      O1700   1.372   1_554  S
C1408      C1409   1.399       .  A
C1409      C1410   1.400       .  A
C1409      H1413   1.084       .  S
C1410      O1414   1.372       .  S
O1412      C1695   1.372       .  S
O1412      H1416   0.992       .  S
O1414      H1415   0.992       .  S
C1417      C1418   1.407       .  A
C1417      C1422   1.412   1_554  A
C1418      C1419   1.398       .  A
C1418      H1423   1.084       .  S
C1419      C1420   1.405       .  A
C1419      O1424   1.372       .  S
C1420      C1709   1.404   1_554  A
C1420      C1441   1.479       .  S
C1421      C1708   1.404       .  A
C1421      C1710   1.405       .  A
C1421      H1425   1.084       .  S
C1422      C1709   1.405       .  A
C1422      O1714   1.370       .  S
O1424      H1428   0.992       .  S
O1426      C1710   1.370       .  S
O1426      H1427   0.992       .  S
C1429      C1430   1.402       .  A
C1429      C1434   1.412       .  A
C1430      C1431   1.401       .  A
C1430      H1435   1.084       .  S
C1431      C1432   1.412       .  A
C1431      O1436   1.372       .  S
C1432      C1433   1.404       .  A
C1433      C1434   1.404       .  A
C1433      H1725   1.084       .  S
C1434      O1438   1.372       .  S
O1436      H1440   0.992       .  S
H1437      C1721   1.084       .  S
O1438      H1727   0.992       .  S
H1439      O1726   0.992       .  S
C1441      C1446   1.402       .  A
C1442      C1443   1.408       .  A
C1442      H1447   1.084       .  S
C1443      C1444   1.406       .  A
C1443      C1720   1.488       .  S
C1444      H1448   1.084       .  S
C1445      C1446   1.400       .  A
C1446      H1449   1.084       .  S
C1450      C1451   1.407       .  A
C1450      C1455   1.399       .  A
C1450      C1669   1.482       .  S
C1451      C1452   1.410       .  A
C1451      H1456   1.084       .  S
C1452      C1453   1.408       .  A
C1452      C1717   1.487       .  S
C1453      C1454   1.406       .  A
C1453      H1457   1.082       .  S
C1454      C1455   1.396       .  A
C1454      C1681   1.486       .  S
C1455      H1458   1.084       .  S
C1459      C1460   1.407       .  A
C1459      C1464   1.402       .  A
C1459      C1633   1.483       .  S
C1460      C1461   1.410       .  A
C1460      H1465   1.083       .  S
C1461      C1462   1.405       .  A
C1461      C1657   1.482       .  S
C1462      C1463   1.401       .  A
C1462      H1466   1.084       .  S
C1463      C1464   1.394       .  A
C1463      C1645   1.474       .  S
C1464      H1467   1.085       .  S
C1468      C1469   1.408       .  A
C1468      C1473   1.405       .  A
C1468      C1621   1.480       .  S
C1469      C1470   1.407       .  A
C1469      H1474   1.084       .  S
C1470      C1471   1.404       .  A
C1470      C1660   1.484       .  S
C1471      C1472   1.403       .  A
C1471      H1475   1.084       .  S
C1472      C1473   1.396       .  A
C1472      C1609   1.480       .  S
C1473      H1476   1.085       .  S
C1477      C1478   1.409       .  A
C1477      C1482   1.405       .  A
C1477      C1573   1.487       .  S
C1478      C1479   1.406       .  A
C1478      H1483   1.084       .  S
C1479      C1480   1.403       .  A
C1480      C1481   1.405       .  A
C1480      H1484   1.084       .  S
C1481      C1482   1.400       .  A
C1481      C1585   1.479       .  S
C1482      H1485   1.083       .  S
C1486      C1487   1.409       .  A
C1486      C1491   1.405       .  A
C1486      C1561   1.490       .  S
C1487      C1488   1.405       .  A
C1487      H1492   1.083       .  S
C1488      C1489   1.403       .  A
C1488      C1600   1.487       .  S
C1489      C1490   1.406       .  A
C1489      H1493   1.084       .  S
C1490      C1491   1.402       .  A
C1490      C1549   1.487       .  S
C1491      H1494   1.081       .  S
O1495      C1506   1.293       .  A
O1496      C1507   1.293       .  A
O1496     Eu1530   2.478       .  S
O1497      C1508   1.293       .  A
O1498      C1509   1.295       .  A
O1498     Eu1503   2.483       .  S
O1499      C1509   1.284       .  A
O1499     Eu1533   2.416       .  S
O1500      C1508   1.287       .  A
O1500     Eu2108   2.429       .  S
O1501      C1507   1.287       .  A
O1501     Eu1503   2.431       .  S
O1502      C1506   1.291       .  A
Eu1503     O1513   2.354       .  S
Eu1503     O1504   2.339       .  S
Eu1503     O1511   2.362       .  S
O1504     Eu1533   2.339       .  S
O1504     Eu1530   2.339       .  S
O1505     Eu2108   2.350       .  S
C1506      C1705   1.488       .  S
C1507      C1552   1.469       .  S
C1508      C1636   1.476       .  S
C1509      C1684   1.467       .  S
H1510      O1511   0.966       .  S
O1511     Eu1530   2.357       .  S
H1512      O1513   0.966       .  S
O1513     Eu1531   2.357       .  S
O1513     Eu1533   2.360       .  S
O1514      C1537   1.292       .  A
O1514     Eu2106   2.474       .  S
O1515      C2114   1.296       .  A
O1516     Eu1532   2.464       .  S
O1517      C1540   1.292       .  A
O1517     Eu1533   2.472       .  S
O1518     Eu1533   2.474       .  S
O1519      C2118   1.295       .  A
O1519     Eu1532   2.484       .  S
O1520     Eu1534   2.474       .  S
O1521      C1544   1.292       .  A
O1521     Eu1534   2.470       .  S
O1522      C1543   1.288       .  A
O1522     Eu1532   2.441       .  S
O1523      C2120   1.287       .  A
O1523     Eu1533   2.434       .  S
O1524      C1539   1.290       .  A
O1524     Eu2106   2.448       .  S
O1525      C1542   1.287       .  A
O1526      C1541   1.289       .  A
O1527      C1540   1.287       .  A
O1527     Eu1530   2.436       .  S
O1528      C1537   1.287       .  A
O1528     Eu1534   2.428       .  S
O1529      C1538   1.286       .  A
Eu1530     O2090   2.474       .  S
Eu1530     O2100   2.448       .  S
Eu1530     O1548   2.359       .  S
Eu1530     O2112   2.354       .  S
Eu1531     O1535   2.353       .  S
Eu1531     O2122   2.345       .  S
Eu1532     O2076   2.429   1_545  S
Eu1532     O2081   2.350   1_545  S
Eu1533     O1535   2.347       .  S
Eu1533     O1548   2.349       .  S
Eu1534     O2111   2.354   1_545  S
Eu1534     O1546   2.341       .  S
Eu1534     O2124   2.349       .  S
Eu1534     O1536   2.352       .  S
O1535     Eu2110   2.354       .  S
O1536     Eu2106   2.354       .  S
C1537      C1672   1.471       .  S
C1538      C1588   1.480       .  S
C1538      O2091   1.296       .  A
C1539      C1576   1.471   1_655  S
C1540      C1648   1.463       .  S
C1541      C1564   1.472       .  S
C1542      C1900   1.480       .  S
C1542      O2095   1.295       .  A
C1543      C1696   1.466       .  S
C1544      O2099   1.287   1_545  A
O1546     Eu2107   2.345   1_545  S
H1547      O2124   0.966       .  S
O1548     Eu2110   2.349       .  S
O1548      H2123   0.966       .  S
C1549      C1550   1.404       .  A
C1549      C1554   1.415       .  A
C1550      C1551   1.397       .  A
C1550      H1555   1.084       .  S
C1551      C1552   1.407       .  A
C1551      O1556   1.373       .  S
C1552      C1553   1.399       .  A
C1553      C1554   1.403       .  A
C1553      H1557   1.084       .  S
C1554      O1558   1.372       .  S
O1556      H1560   0.992       .  S
O1558      H1559   0.992       .  S
C1561      C1562   1.404       .  A
C1561      C1566   1.416       .  A
C1562      C1563   1.394       .  A
C1562      H1567   1.083       .  S
C1563      C1564   1.406       .  A
C1563      O1568   1.371       .  S
C1564      C1565   1.400       .  A
C1565      C1566   1.407       .  A
C1565      H1569   1.084       .  S
C1566      O1570   1.373       .  S
O1568      H1572   0.992       .  S
O1570      H1571   0.992       .  S
C1573      C1574   1.406       .  A
C1573      C1578   1.413       .  A
C1574      H1579   1.083       .  S
C1575      C1576   1.406   1_655  A
C1575      O1580   1.372       .  S
C1577      C1578   1.404       .  A
C1577      H1581   1.084       .  S
C1578      O1582   1.373       .  S
O1580      H1584   0.992       .  S
O1582      H1583   0.992       .  S
C1585      C1590   1.410       .  A
C1586      C1587   1.392       .  A
C1586      H1591   1.084       .  S
C1587      C1588   1.413       .  A
C1587      O1592   1.372       .  S
C1589      C1590   1.406       .  A
C1589      H1593   1.083       .  S
C1590      O1594   1.371       .  S
O1592      H1596   0.992       .  S
O1594      H1595   0.992       .  S
C1597      C1602   1.412       .  A
C1598      H1603   1.084       .  S
C1599      C1600   1.411       .  A
C1600      C1601   1.404       .  A
C1601      C1602   1.400       .  A
C1601      H1605   1.084       .  S
C1602      O1606   1.372       .  S
O1604      H1608   0.992       .  S
O1606      H1607   0.992       .  S
C1609      C1610   1.407       .  A
C1609      C1614   1.406   1_545  A
C1610      H1615   1.083       .  S
C1611      O1616   1.371       .  S
C1612      C2189   1.404   1_545  A
C1612      C1830   1.480   1_556  S
C1613      C2188   1.404       .  A
C1613      C2190   1.392       .  A
C1613      H1617   1.084       .  S
C1614      C2189   1.392       .  A
C1614      O2194   1.372       .  S
O1616      H1620   0.992       .  S
O1618      C2190   1.372       .  S
O1618      H1619   0.992       .  S
C1621      C1622   1.401       .  A
C1621      C1626   1.408       .  A
C1622      C2199   1.391   1_545  A
C1622      H2203   1.084   1_545  S
C1623      C2198   1.391       .  A
C1623      C2200   1.411       .  A
C1624      C2199   1.411   1_545  A
C1624      C1625   1.408       .  A
C1625      C1626   1.407       .  A
C1625      H1629   1.083       .  S
C1626      O1630   1.371       .  S
H1627      C2198   1.084       .  S
O1628      H1632   0.992       .  S
O1630      H1631   0.992       .  S
C1633      C1634   1.403       .  A
C1633      C1638   1.410       .  A
C1634      C1635   1.389       .  A
C1634      H1639   1.084       .  S
C1635      C1636   1.408       .  A
C1635      O1640   1.373       .  S
C1636      C1637   1.407       .  A
C1637      C1638   1.409       .  A
C1637      H1641   1.083       .  S
C1638      O1642   1.371       .  S
O1640      H1644   0.992       .  S
O1642      H1643   0.992       .  S
C1645      C1646   1.405       .  A
C1645      C1650   1.406       .  A
C1646      C1647   1.397       .  A
C1646      H1651   1.084       .  S
C1647      C1648   1.403       .  A
C1647      O2228   1.372       .  S
C1648      C1649   1.404       .  A
C1649      C1650   1.401       .  A
C1649      H1653   1.084       .  S
C1650      O1654   1.371       .  S
O1652      C2223   1.372       .  S
O1652      H1656   0.991       .  S
O1654      H1655   0.992       .  S
C1657      C1658   1.400       .  A
C1657      C2238   1.412       .  A
C1658      C1659   1.399       .  A
C1658      H1663   1.084       .  S
C1659      C2236   1.412       .  A
C1659      O1664   1.371       .  S
C1660      C2235   1.412   1_545  A
C1660      C1661   1.402       .  A
C1661      C1662   1.403       .  A
C1661      H1665   1.083       .  S
C1662      C2233   1.412   1_545  A
C1662      O1666   1.372       .  S
O1664      H1668   0.992       .  S
O1666      H1667   0.992       .  S
C1669      C1670   1.407       .  A
C1669      C1674   1.411       .  A
C1670      C1671   1.408       .  A
C1670      H1675   1.083       .  S
C1671      C1672   1.409       .  A
C1671      O1676   1.371       .  S
C1672      C1673   1.399       .  A
C1673      C1674   1.389       .  A
C1673      H1677   1.085       .  S
C1674      O1678   1.373       .  S
O1676      H1680   0.991       .  S
O1678      H1679   0.992       .  S
C1681      C1682   1.411       .  A
C1681      C1686   1.407       .  A
C1682      C1683   1.397       .  A
C1682      H1687   1.082       .  S
C1683      C1684   1.400       .  A
C1683      O1688   1.371       .  S
C1684      C1685   1.405       .  A
C1685      C1686   1.400       .  A
C1685      H1689   1.084       .  S
C1686      O1690   1.373       .  S
O1688      H1692   0.992       .  S
O1690      H1691   0.992       .  S
C1693      C1698   1.410       .  A
C1694      H1699   1.084   1_554  S
C1695      C1696   1.407       .  A
C1696      C1697   1.399       .  A
C1697      C1698   1.400       .  A
C1697      H1701   1.084       .  S
C1698      O1702   1.372       .  S
O1700      H1704   0.992       .  S
O1702      H1703   0.992       .  S
C1705      C1706   1.407       .  A
C1705      C1710   1.412       .  A
C1706      C1707   1.398       .  A
C1706      H1711   1.084       .  S
C1707      C1708   1.405       .  A
C1707      O1712   1.372       .  S
C1709      H1713   1.084       .  S
O1712      H1716   0.992       .  S
O1714      H1715   0.992       .  S
C1717      C1718   1.402       .  A
C1717      C1722   1.412       .  A
C1718      C1719   1.401       .  A
C1718      H1723   1.084       .  S
C1719      C1720   1.412       .  A
C1719      O1724   1.372       .  S
C1720      C1721   1.404       .  A
C1721      C1722   1.404       .  A
C1722      O1726   1.372       .  S
O1724      H1728   0.992       .  S
C1729      C2018   1.407       .  A
C1729      C1734   1.402       .  A
C1729      C2284   1.479       .  S
C1730      C2017   1.407       .  A
C1730      C1731   1.408       .  A
C1730      H1735   1.084       .  S
C1731      C1732   1.406       .  A
C1731      C2008   1.488       .  S
C1732      C2021   1.403       .  A
C1732      H1736   1.084       .  S
C1733      C2020   1.403       .  A
C1733      C1734   1.400       .  A
C1733      C2269   1.479       .  S
C1734      H1737   1.084       .  S
C1738      C1739   1.407       .  A
C1738      C1743   1.399       .  A
C1738      C1957   1.482       .  S
C1739      C1740   1.410       .  A
C1739      H1744   1.084       .  S
C1740      C1741   1.408       .  A
C1740      C2005   1.487       .  S
C1741      C1742   1.406       .  A
C1741      H1745   1.082       .  S
C1742      C1743   1.396       .  A
C1742      C1969   1.486       .  S
C1743      H1746   1.084       .  S
C1747      C1748   1.407       .  A
C1747      C1752   1.402       .  A
C1747      C1921   1.483       .  S
C1748      C1749   1.410       .  A
C1748      H1753   1.083       .  S
C1749      C1750   1.405       .  A
C1749      C1945   1.482       .  S
C1750      C1751   1.401       .  A
C1750      H1754   1.084       .  S
C1751      C1752   1.394       .  A
C1751      C1933   1.474       .  S
C1752      H1755   1.085       .  S
C1756      C1757   1.408       .  A
C1756      C1761   1.405       .  A
C1756      C1909   1.480       .  S
C1757      C1758   1.407       .  A
C1757      H1762   1.084       .  S
C1758      C1759   1.404       .  A
C1758      C1948   1.484       .  S
C1759      C1760   1.403       .  A
C1759      H1763   1.084       .  S
C1760      C1761   1.396       .  A
C1760      C1897   1.480       .  S
C1761      H1764   1.085       .  S
C1765      C1766   1.409       .  A
C1765      C1770   1.405       .  A
C1765      C1861   1.487       .  S
C1766      C1767   1.406       .  A
C1766      H1771   1.084       .  S
C1767      C1768   1.403       .  A
C1768      C1769   1.405       .  A
C1768      H1772   1.084       .  S
C1769      C1770   1.400       .  A
C1769      C1873   1.479       .  S
C1770      H1773   1.083       .  S
C1774      C1775   1.409       .  A
C1774      C1779   1.405       .  A
C1774      C1849   1.490       .  S
C1775      C1776   1.405       .  A
C1775      H1780   1.083       .  S
C1776      C1777   1.403       .  A
C1776      C1888   1.487       .  S
C1777      C1778   1.406       .  A
C1777      H1781   1.084       .  S
C1778      C1779   1.402       .  A
C1778      C1837   1.487       .  S
C1779      H1782   1.081       .  S
O1783      C1794   1.293       .  A
O1784      C1795   1.293       .  A
O1784     Eu1818   2.478   1_565  S
O1785      C1796   1.293       .  A
O1786      C1797   1.295       .  A
O1786     Eu1791   2.483       .  S
O1787      C1797   1.284       .  A
O1787     Eu1821   2.416       .  S
O1788      C1796   1.287       .  A
O1789      C1795   1.287       .  A
O1789     Eu1791   2.431       .  S
O1790      C1794   1.291       .  A
Eu1791     O1801   2.354       .  S
Eu1791     O1792   2.339       .  S
Eu1791     O1799   2.362       .  S
O1792     Eu1821   2.339       .  S
O1792     Eu1818   2.339   1_565  S
C1794      C1993   1.488       .  S
C1795      C1840   1.469       .  S
C1796      C1924   1.476       .  S
C1797      C1972   1.467       .  S
H1798      O1799   0.966       .  S
O1799     Eu1818   2.357   1_565  S
H1800      O1801   0.966       .  S
O1801     Eu1819   2.357       .  S
O1801     Eu1821   2.360       .  S
O1802      C1825   1.292       .  A
O1803     Eu2107   2.490   1_545  S
O1804     Eu1820   2.464       .  S
O1805      C1828   1.292       .  A
O1805     Eu1821   2.472       .  S
O1806      C2117   1.293       .  A
O1806     Eu1821   2.474   1_556  S
O1807     Eu1820   2.484       .  S
O1808     Eu1822   2.474       .  S
O1809      C1832   1.292   1_554  A
O1809     Eu1822   2.470       .  S
O1810      C1831   1.288       .  A
O1810     Eu1820   2.441       .  S
O1811     Eu1821   2.434       .  S
O1812      C1827   1.290       .  A
O1813      C1830   1.287   1_566  A
O1814      C1829   1.289       .  A
O1814     Eu2107   2.439       .  S
O1815      C1828   1.287       .  A
O1815     Eu1818   2.436   1_565  S
O1816      C1825   1.287       .  A
O1816     Eu1822   2.428       .  S
O1817      C1826   1.286       .  A
O1817     Eu2110   2.421       .  S
Eu1818     O1836   2.359       .  S
Eu1819     O2091   2.490   1_564  S
Eu1819     O2102   2.439   1_554  S
Eu1819     O1823   2.353       .  S
Eu1821     O1823   2.347       .  S
Eu1821     O1836   2.349   1_565  S
Eu1822     O2105   2.421   1_554  S
Eu1822     O1834   2.341       .  S
Eu1822     O1824   2.352       .  S
C1825      C1960   1.471       .  S
C1826      C1876   1.480       .  S
C1827      C1864   1.471   1_655  S
C1828      C1936   1.463       .  S
C1829      C1852   1.472       .  S
C1829      O2094   1.293       .  A
C1831      C1984   1.466       .  S
C1832      C2200   1.481       .  S
C1837      C1838   1.404       .  A
C1837      C1842   1.415       .  A
C1838      C1839   1.397       .  A
C1838      H1843   1.084       .  S
C1839      C1840   1.407       .  A
C1839      O1844   1.373       .  S
C1840      C1841   1.399       .  A
C1841      C1842   1.403       .  A
C1841      H1845   1.084       .  S
C1842      O1846   1.372       .  S
O1844      H1848   0.992       .  S
O1846      H1847   0.992       .  S
C1849      C1850   1.404       .  A
C1849      C1854   1.416       .  A
C1850      C1851   1.394       .  A
C1850      H1855   1.083       .  S
C1851      C1852   1.406       .  A
C1851      O1856   1.371       .  S
C1852      C1853   1.400       .  A
C1853      C1854   1.407       .  A
C1853      H1857   1.084       .  S
C1854      O1858   1.373       .  S
O1856      H1860   0.992       .  S
O1858      H1859   0.992       .  S
C1861      C1862   1.406       .  A
C1861      C1866   1.413       .  A
C1862      H1867   1.083       .  S
C1863      C1864   1.406   1_655  A
C1863      O1868   1.372       .  S
C1865      C1866   1.404       .  A
C1865      H1869   1.084       .  S
C1866      O1870   1.373       .  S
O1868      H1872   0.992       .  S
O1870      H1871   0.992       .  S
C1873      C1878   1.410       .  A
C1874      C1875   1.392       .  A
C1874      H1879   1.084       .  S
C1875      C1876   1.413       .  A
C1875      O1880   1.372       .  S
C1877      C1878   1.406       .  A
C1877      H1881   1.083       .  S
C1878      O1882   1.371       .  S
O1880      H1884   0.992       .  S
O1882      H1883   0.992       .  S
C1885      C1890   1.412       .  A
C1886      H1891   1.084       .  S
C1887      C1888   1.411       .  A
C1888      C1889   1.404       .  A
C1889      C1890   1.400       .  A
C1889      H1893   1.084       .  S
C1890      O1894   1.372       .  S
O1892      H1896   0.992       .  S
O1894      H1895   0.992       .  S
C1897      C1898   1.407       .  A
C1897      C1902   1.406       .  A
C1898      C2187   1.407       .  A
C1898      H1903   1.083       .  S
C1899      C2186   1.407       .  A
C1899      C2188   1.411       .  A
C1899      O1904   1.371   1_556  S
C1900      C2187   1.411       .  A
C1901      H1905   1.084       .  S
O1904      H1908   0.992       .  S
O1906      H1907   0.992       .  S
C1909      C1910   1.401       .  A
C1909      C1914   1.408       .  A
C1911      O2204   1.373       .  S
C1912      C1913   1.408       .  A
C1912      C2120   1.481       .  S
C1913      C1914   1.407       .  A
C1913      H1917   1.083       .  S
C1914      O1918   1.371       .  S
O1916      C2199   1.373   1_554  S
O1916      H1920   0.992       .  S
O1918      H1919   0.992       .  S
C1921      C1922   1.403       .  A
C1921      C1926   1.410       .  A
C1922      C1923   1.389       .  A
C1922      H1927   1.084       .  S
C1923      C1924   1.408       .  A
C1923      O1928   1.373       .  S
C1924      C1925   1.407       .  A
C1925      C1926   1.409       .  A
C1925      H1929   1.083       .  S
C1926      O1930   1.371       .  S
O1928      H1932   0.992   1_565  S
O1930      H1931   0.992       .  S
C1933      C1934   1.405       .  A
C1933      C1938   1.406       .  A
C1934      C1935   1.397       .  A
C1934      H1939   1.084       .  S
C1935      C1936   1.403       .  A
C1936      C1937   1.404       .  A
C1937      C1938   1.401       .  A
C1937      H1941   1.084       .  S
C1938      O1942   1.371       .  S
O1940      H1944   0.991       .  S
O1942      H1943   0.992       .  S
C1945      C1946   1.400       .  A
C1946      C1947   1.399       .  A
C1946      H1951   1.084       .  S
C1947      O1952   1.371       .  S
C1948      C1949   1.402       .  A
C1949      C1950   1.403       .  A
C1949      H1953   1.083       .  S
C1950      O1954   1.372       .  S
O1952      H1956   0.992       .  S
O1954      H1955   0.992       .  S
C1957      C1958   1.407       .  A
C1957      C1962   1.411       .  A
C1958      C1959   1.408       .  A
C1958      H1963   1.083       .  S
C1959      C1960   1.409       .  A
C1959      O1964   1.371       .  S
C1960      C1961   1.399       .  A
C1961      C1962   1.389       .  A
C1961      H1965   1.085       .  S
C1962      O1966   1.373       .  S
O1964      H1968   0.991       .  S
O1966      H1967   0.992       .  S
C1969      C1970   1.411       .  A
C1969      C1974   1.407       .  A
C1970      C1971   1.397       .  A
C1970      H1975   1.082       .  S
C1971      C1972   1.400       .  A
C1971      O1976   1.371       .  S
C1972      C1973   1.405       .  A
C1973      C1974   1.400       .  A
C1973      H1977   1.084       .  S
C1974      O1978   1.373       .  S
O1976      H1980   0.992       .  S
O1978      H1979   0.992       .  S
C1981      C2270   1.403       .  A
C1981      C1986   1.410       .  A
C1981      C2021   1.479       .  S
C1982      C2269   1.403       .  A
C1982      C2271   1.401       .  A
C1982      H1987   1.084       .  S
C1983      C2270   1.401       .  A
C1983      C1984   1.407       .  A
C1983      O2276   1.372   1_554  S
C1984      C1985   1.399       .  A
C1985      C1986   1.400       .  A
C1985      H1989   1.084       .  S
C1986      O1990   1.372       .  S
O1988      C2271   1.372       .  S
O1988      H1992   0.992       .  S
O1990      H1991   0.992       .  S
C1993      C1994   1.407       .  A
C1993      C1998   1.412   1_554  A
C1994      C1995   1.398       .  A
C1994      H1999   1.084       .  S
C1995      C1996   1.405       .  A
C1995      O2000   1.372       .  S
C1996      C2285   1.404   1_554  A
C1996      C2017   1.479       .  S
C1997      C2284   1.404       .  A
C1997      C2286   1.405       .  A
C1997      H2001   1.084       .  S
C1998      C2285   1.405       .  A
C1998      O2290   1.370       .  S
O2000      H2004   0.992       .  S
O2002      C2286   1.370       .  S
O2002      H2003   0.992       .  S
C2005      C2006   1.402       .  A
C2005      C2010   1.412       .  A
C2006      C2007   1.401       .  A
C2006      H2011   1.084       .  S
C2007      C2008   1.412       .  A
C2007      O2012   1.372       .  S
C2008      C2009   1.404       .  A
C2009      C2010   1.404       .  A
C2009      H2301   1.084       .  S
C2010      O2014   1.372       .  S
O2012      H2016   0.992       .  S
H2013      C2297   1.084       .  S
O2014      H2303   0.992       .  S
H2015      O2302   0.992       .  S
C2017      C2022   1.402       .  A
C2018      C2019   1.408       .  A
C2018      H2023   1.084       .  S
C2019      C2020   1.406       .  A
C2019      C2296   1.488       .  S
C2020      H2024   1.084       .  S
C2021      C2022   1.400       .  A
C2022      H2025   1.084       .  S
C2026      C2027   1.407       .  A
C2026      C2031   1.399       .  A
C2026      C2245   1.482       .  S
C2027      C2028   1.410       .  A
C2027      H2032   1.084       .  S
C2028      C2029   1.408       .  A
C2028      C2293   1.487       .  S
C2029      C2030   1.406       .  A
C2029      H2033   1.082       .  S
C2030      C2031   1.396       .  A
C2030      C2257   1.486       .  S
C2031      H2034   1.084       .  S
C2035      C2036   1.407       .  A
C2035      C2040   1.402       .  A
C2035      C2209   1.483       .  S
C2036      C2037   1.410       .  A
C2036      H2041   1.083       .  S
C2037      C2038   1.405       .  A
C2037      C2233   1.482       .  S
C2038      C2039   1.401       .  A
C2038      H2042   1.084       .  S
C2039      C2040   1.394       .  A
C2039      C2221   1.474       .  S
C2040      H2043   1.085       .  S
C2044      C2045   1.408       .  A
C2044      C2049   1.405       .  A
C2044      C2197   1.480       .  S
C2045      C2046   1.407       .  A
C2045      H2050   1.084       .  S
C2046      C2047   1.404       .  A
C2046      C2236   1.484       .  S
C2047      C2048   1.403       .  A
C2047      H2051   1.084       .  S
C2048      C2049   1.396       .  A
C2048      C2185   1.480       .  S
C2049      H2052   1.085       .  S
C2053      C2054   1.409       .  A
C2053      C2058   1.405       .  A
C2053      C2149   1.487       .  S
C2054      C2055   1.406       .  A
C2054      H2059   1.084       .  S
C2055      C2056   1.403       .  A
C2056      C2057   1.405       .  A
C2056      H2060   1.084       .  S
C2057      C2058   1.400       .  A
C2057      C2161   1.479       .  S
C2058      H2061   1.083       .  S
C2062      C2063   1.409       .  A
C2062      C2067   1.405       .  A
C2062      C2137   1.490       .  S
C2063      C2064   1.405       .  A
C2063      H2068   1.083       .  S
C2064      C2065   1.403       .  A
C2064      C2176   1.487       .  S
C2065      C2066   1.406       .  A
C2065      H2069   1.084       .  S
C2066      C2067   1.402       .  A
C2066      C2125   1.487       .  S
C2067      H2070   1.081       .  S
O2071      C2082   1.293       .  A
O2072      C2083   1.293       .  A
O2072     Eu2106   2.478   1_565  S
O2073      C2084   1.293       .  A
O2074      C2085   1.295       .  A
O2074     Eu2079   2.483       .  S
O2075      C2085   1.284       .  A
O2075     Eu2109   2.416       .  S
O2076      C2084   1.287       .  A
O2077      C2083   1.287       .  A
O2077     Eu2079   2.431       .  S
O2078      C2082   1.291       .  A
Eu2079     O2089   2.354       .  S
Eu2079     O2080   2.339       .  S
Eu2079     O2087   2.362       .  S
O2080     Eu2109   2.339       .  S
O2080     Eu2106   2.339   1_565  S
C2082      C2281   1.488       .  S
C2083      C2128   1.469       .  S
C2084      C2212   1.476       .  S
C2085      C2260   1.467       .  S
H2086      O2087   0.966       .  S
O2087     Eu2106   2.357   1_565  S
H2088      O2089   0.966       .  S
O2089     Eu2107   2.357       .  S
O2089     Eu2109   2.360       .  S
O2090      C2113   1.292       .  A
O2092     Eu2108   2.464       .  S
O2093      C2116   1.292       .  A
O2093     Eu2109   2.472       .  S
O2094     Eu2109   2.474       .  S
O2095     Eu2108   2.484       .  S
O2096     Eu2110   2.474       .  S
O2097      C2120   1.292       .  A
O2097     Eu2110   2.470       .  S
O2098      C2119   1.288       .  A
O2098     Eu2108   2.441       .  S
O2099     Eu2109   2.434       .  S
O2100      C2115   1.290       .  A
O2101      C2118   1.287   1_565  A
O2102      C2117   1.289       .  A
O2103      C2116   1.287       .  A
O2103     Eu2106   2.436   1_565  S
O2104      C2113   1.287       .  A
O2104     Eu2110   2.428       .  S
O2105      C2114   1.286       .  A
Eu2106     O2124   2.359       .  S
Eu2107     O2111   2.353       .  S
Eu2109     O2111   2.347       .  S
Eu2109     O2124   2.349   1_565  S
Eu2110     O2122   2.341       .  S
Eu2110     O2112   2.352       .  S
C2113      C2248   1.471       .  S
C2114      C2164   1.480       .  S
C2115      C2152   1.471   1_655  S
C2116      C2224   1.463       .  S
C2117      C2140   1.472       .  S
C2119      C2272   1.466       .  S
C2125      C2126   1.404       .  A
C2125      C2130   1.415       .  A
C2126      C2127   1.397       .  A
C2126      H2131   1.084       .  S
C2127      C2128   1.407       .  A
C2127      O2132   1.373       .  S
C2128      C2129   1.399       .  A
C2129      C2130   1.403       .  A
C2129      H2133   1.084       .  S
C2130      O2134   1.372       .  S
O2132      H2136   0.992       .  S
O2134      H2135   0.992       .  S
C2137      C2138   1.404       .  A
C2137      C2142   1.416       .  A
C2138      C2139   1.394       .  A
C2138      H2143   1.083       .  S
C2139      C2140   1.406       .  A
C2139      O2144   1.371       .  S
C2140      C2141   1.400       .  A
C2141      C2142   1.407       .  A
C2141      H2145   1.084       .  S
C2142      O2146   1.373       .  S
O2144      H2148   0.992       .  S
O2146      H2147   0.992       .  S
C2149      C2150   1.406       .  A
C2149      C2154   1.413       .  A
C2150      H2155   1.083       .  S
C2151      C2152   1.406   1_655  A
C2151      O2156   1.372       .  S
C2153      C2154   1.404       .  A
C2153      H2157   1.084       .  S
C2154      O2158   1.373       .  S
O2156      H2160   0.992       .  S
O2158      H2159   0.992       .  S
C2161      C2166   1.410       .  A
C2162      C2163   1.392       .  A
C2162      H2167   1.084       .  S
C2163      C2164   1.413       .  A
C2163      O2168   1.372       .  S
C2165      C2166   1.406       .  A
C2165      H2169   1.083       .  S
C2166      O2170   1.371       .  S
O2168      H2172   0.992       .  S
O2170      H2171   0.992       .  S
C2173      C2178   1.412       .  A
C2174      H2179   1.084       .  S
C2175      C2176   1.411       .  A
C2176      C2177   1.404       .  A
C2177      C2178   1.400       .  A
C2177      H2181   1.084       .  S
C2178      O2182   1.372       .  S
O2180      H2184   0.992       .  S
O2182      H2183   0.992       .  S
C2185      C2186   1.407       .  A
C2185      C2190   1.406       .  A
C2186      H2191   1.083       .  S
C2187      O2192   1.371       .  S
C2189      H2193   1.084       .  S
O2192      H2196   0.992       .  S
O2194      H2195   0.992       .  S
C2197      C2198   1.401       .  A
C2197      C2202   1.408       .  A
C2200      C2201   1.408       .  A
C2201      C2202   1.407       .  A
C2201      H2205   1.083       .  S
C2202      O2206   1.371       .  S
O2204      H2208   0.992       .  S
O2206      H2207   0.992       .  S
C2209      C2210   1.403       .  A
C2209      C2214   1.410       .  A
C2210      C2211   1.389       .  A
C2210      H2215   1.084       .  S
C2211      C2212   1.408       .  A
C2211      O2216   1.373       .  S
C2212      C2213   1.407       .  A
C2213      C2214   1.409       .  A
C2213      H2217   1.083       .  S
C2214      O2218   1.371       .  S
O2216      H2220   0.992   1_565  S
O2218      H2219   0.992       .  S
C2221      C2222   1.405       .  A
C2221      C2226   1.406       .  A
C2222      C2223   1.397       .  A
C2222      H2227   1.084       .  S
C2223      C2224   1.403       .  A
C2224      C2225   1.404       .  A
C2225      C2226   1.401       .  A
C2225      H2229   1.084       .  S
C2226      O2230   1.371       .  S
O2228      H2232   0.991       .  S
O2230      H2231   0.992       .  S
C2233      C2234   1.400       .  A
C2234      C2235   1.399       .  A
C2234      H2239   1.084       .  S
C2235      O2240   1.371       .  S
C2236      C2237   1.402       .  A
C2237      C2238   1.403       .  A
C2237      H2241   1.083       .  S
C2238      O2242   1.372       .  S
O2240      H2244   0.992       .  S
O2242      H2243   0.992       .  S
C2245      C2246   1.407       .  A
C2245      C2250   1.411       .  A
C2246      C2247   1.408       .  A
C2246      H2251   1.083       .  S
C2247      C2248   1.409       .  A
C2247      O2252   1.371       .  S
C2248      C2249   1.399       .  A
C2249      C2250   1.389       .  A
C2249      H2253   1.085       .  S
C2250      O2254   1.373       .  S
O2252      H2256   0.991       .  S
O2254      H2255   0.992       .  S
C2257      C2258   1.411       .  A
C2257      C2262   1.407       .  A
C2258      C2259   1.397       .  A
C2258      H2263   1.082       .  S
C2259      C2260   1.400       .  A
C2259      O2264   1.371       .  S
C2260      C2261   1.405       .  A
C2261      C2262   1.400       .  A
C2261      H2265   1.084       .  S
C2262      O2266   1.373       .  S
O2264      H2268   0.992       .  S
O2266      H2267   0.992       .  S
C2269      C2274   1.410       .  A
C2270      H2275   1.084   1_554  S
C2271      C2272   1.407       .  A
C2272      C2273   1.399       .  A
C2273      C2274   1.400       .  A
C2273      H2277   1.084       .  S
C2274      O2278   1.372       .  S
O2276      H2280   0.992       .  S
O2278      H2279   0.992       .  S
C2281      C2282   1.407       .  A
C2281      C2286   1.412       .  A
C2282      C2283   1.398       .  A
C2282      H2287   1.084       .  S
C2283      C2284   1.405       .  A
C2283      O2288   1.372       .  S
C2285      H2289   1.084       .  S
O2288      H2292   0.992       .  S
O2290      H2291   0.992       .  S
C2293      C2294   1.402       .  A
C2293      C2298   1.412       .  A
C2294      C2295   1.401       .  A
C2294      H2299   1.084       .  S
C2295      C2296   1.412       .  A
C2295      O2300   1.372       .  S
C2296      C2297   1.404       .  A
C2297      C2298   1.404       .  A
C2298      O2302   1.372       .  S
O2300      H2304   0.992       .  S
