geometry optimzed in LAMMPS
_audit_creation_date              2020-12-01 
_audit_creation_method            'lammps2cif' 
_symmetry_space_group_name_H-M    'P1' 
_symmetry_Int_Tables_number       1 
_symmetry_cell_setting            triclinic 
loop_ 
_symmetry_equiv_pos_as_xyz 
  x,y,z 
_cell_length_a                    40.86935984 
_cell_length_b                    41.095393545473804 
_cell_length_c                    36.97591839108513 
_cell_angle_alpha                 90.52177059721022 
_cell_angle_beta                  89.86419889105848 
_cell_angle_gamma                 89.9032450606316 
loop_ 
_atom_site_label 
_atom_site_type_symbol 
_atom_site_fract_x 
_atom_site_fract_y 
_atom_site_fract_z 
_atom_site_charge 
C1          C  0.25892326  0.22168609  0.87443681     0.80400
N2          N  0.25775598  0.22035906  0.83781348    -0.77900
C3          C  0.23882367  0.24132071  0.81898570     0.82900
N4          N  0.22083037  0.26377763  0.83732684    -0.77800
C5          C  0.22125583  0.26508581  0.87399851     0.82900
N6          N  0.24054005  0.24411290  0.89272473    -0.79600
Zn7        Zn  0.46246972  0.00550697  0.97875903     1.49700
Zn8        Zn  0.50137428  0.04373422  0.91705370     1.49400
Zn9        Zn  0.02977341  0.99873830  0.98038460     1.49100
Zn10       Zn  0.49023063  0.46371831  0.91637847     1.49500
O11         O  0.50085647  0.00465834  0.94705259    -1.83900
O12         O  0.43343515  0.04405361  0.96832681    -0.74600
O13         O  0.03371948  0.06785984  0.93364080    -0.74400
O14         O  0.01748934  0.99878052  0.03279353    -0.73900
O15         O  0.46044600  0.07021972  0.92539801    -0.74600
O16         O  0.47565321  0.00648599  0.03133231    -0.74200
O17         O  0.05971288  0.03678196  0.97295544    -0.74800
O18         O  0.03519784  0.43788139  0.92346262    -0.74200
O19         O  0.50233247  0.03191094  0.86387310    -0.74900
O20         O  0.06380255  0.45931946  0.96858852    -0.74300
O21         O  0.48817911  0.47726224  0.86417606    -0.74800
O22         O  0.45110693  0.43518274  0.92714224    -0.74700
O23         O  0.42336975  0.46428783  0.96762563    -0.74500
C24         C  0.43565525  0.06744773  0.94610517     0.77300
C25         C  0.05814013  0.06242632  0.95404188     0.77800
C26         C  0.50290709  0.00397577  0.04772594     0.76800
C27         C  0.05984145  0.43731813  0.94447784     0.77100
C28         C  0.49816275  0.00528597  0.84658062     0.78300
C29         C  0.42647209  0.43883851  0.94798943     0.77300
C30         C  0.22779828  0.22603871  0.02155467     0.80400
N31         N  0.22924242  0.22709416  0.05818496    -0.77900
C32         C  0.25144952  0.24598003  0.07550400     0.82900
N33         N  0.27252962  0.26398998  0.05570471    -0.77800
C34         C  0.27126712  0.26358606  0.01903651     0.82900
N35         N  0.24878461  0.24456340  0.00178791    -0.79600
C36         C  0.02725991  0.47707223  0.38072335     0.80400
N37         N  0.02643095  0.47659897  0.34395524    -0.77900
C38         C  0.00233733  0.99838241  0.32207100     0.82900
N39         N  0.48299625  0.01230730  0.34021950    -0.77800
C40         C  0.48295617  0.01255049  0.37693103     0.82900
N41         N  0.00356555  0.49346709  0.39943543    -0.79600
Zn42       Zn  0.25843285  0.21006899  0.47713139     1.49700
Zn43       Zn  0.25893788  0.28844642  0.47929207     1.49400
Zn44       Zn  0.29690031  0.25020435  0.41646510     1.49100
Zn45       Zn  0.21779799  0.24959796  0.41977814     1.49500
O46         O  0.25814760  0.24962824  0.44811572    -1.83900
O47         O  0.25923413  0.22176353  0.52985376    -0.74600
O48         O  0.29844469  0.31591475  0.46892832    -0.74400
O49         O  0.32462376  0.20986436  0.42395412    -0.73900
O50         O  0.25865740  0.27579545  0.53188209    -0.74600
O51         O  0.29748582  0.18182626  0.46527340    -0.74200
O52         O  0.32514658  0.29048637  0.42466468    -0.74800
O53         O  0.22841727  0.24828111  0.36668860    -0.74200
O54         O  0.21991048  0.31760923  0.47084723    -0.74900
O55         O  0.28265993  0.25016535  0.36429864    -0.74300
O56         O  0.19185326  0.29023374  0.42932014    -0.74800
O57         O  0.18789314  0.21186490  0.43174438    -0.74700
O58         O  0.21740068  0.18316365  0.47020356    -0.74500
C59         C  0.25850635  0.24839028  0.54772890     0.77300
C60         C  0.32209137  0.31451482  0.44648935     0.77800
C61         C  0.32163118  0.18473591  0.44370707     0.76800
C62         C  0.25494506  0.24910005  0.34857881     0.77100
C63         C  0.19530112  0.31487540  0.45002464     0.78300
C64         C  0.19121686  0.18732240  0.45221192     0.77300
C65         C  0.47765907  0.48585203  0.51925225     0.80400
N66         N  0.47624887  0.48498612  0.55595374    -0.77900
C67         C  0.99211116  0.01119436  0.57708045     0.82900
N68         N  0.00903235  0.03464268  0.55948012    -0.77800
C69         C  0.01101267  0.03449570  0.52274823     0.82900
N70         N  0.99055738  0.50799095  0.50587500    -0.79600
C71         C  0.05877134  0.11160303  0.50407189    -0.27400
C72         C  0.08177059  0.10059994  0.47846931     0.02200
C73         C  0.07913545  0.06856821  0.46478528     0.30300
C74         C  0.05458395  0.04777426  0.47770097    -0.19200
C75         C  0.03269907  0.05830884  0.50474695    -0.28600
C76         C  0.03448705  0.09076502  0.51725491     0.44300
C77         C  0.10976518  0.12192905  0.46859842     0.05500
O78         O  0.10117384  0.05702528  0.43973879    -0.57100
H79         H  0.05372651  0.02287797  0.46785022     0.18400
O80         O  0.01329608  0.10203057  0.54334364    -0.63900
H81         H  0.06049739  0.13605661  0.51508577     0.16900
C82         C  0.10475768  0.15325739  0.45448477     0.29100
C83         C  0.13154586  0.17376609  0.44798186    -0.24700
C84         C  0.16366567  0.16388707  0.45617108    -0.24000
C85         C  0.16861362  0.13220877  0.46969045     0.40600
C86         C  0.14186027  0.11160862  0.47569122    -0.26500
O87         O  0.07377161  0.16384850  0.44650614    -0.58400
H88         H  0.12698526  0.19788607  0.43751433     0.16200
O89         O  0.19942743  0.12118961  0.47769032    -0.59800
H90         H  0.14614679  0.08770865  0.48689458     0.14700
H91         H  0.99582807  0.11355484  0.52997908     0.46500
H92         H  0.06790334  0.17933140  0.46621651     0.41900
H93         H  0.20780315  0.11148551  0.45481773     0.45300
H94         H  0.09023818  0.05960985  0.41602402     0.36800
C95         C  0.36214592  0.39672069  0.46311841    -0.27400
C96         C  0.39448907  0.39054081  0.45254634     0.02200
C97         C  0.40237718  0.36031940  0.43650870     0.30300
C98         C  0.37835262  0.33608171  0.43319151    -0.19200
C99         C  0.34637190  0.34145087  0.44620201    -0.28600
C100        C  0.33824190  0.37253442  0.46027751     0.44300
C101        C  0.42014826  0.41384253  0.46391511     0.05500
O102        O  0.43377168  0.35379826  0.42540925    -0.57100
H103        H  0.38513014  0.31261602  0.42185749     0.18400
O104        O  0.30697637  0.37959050  0.47148509    -0.63900
H105        H  0.35575023  0.41987494  0.47552181     0.15100
C106        C  0.42031104  0.44624166  0.45181371     0.29100
C107        C  0.44067888  0.46931990  0.46861682    -0.24700
C108        C  0.46034583  0.46058837  0.49804690    -0.24000
C109        C  0.46123839  0.42781355  0.50890717     0.40600
C110        C  0.44140269  0.40474729  0.49174821    -0.26500
O111        O  0.40014826  0.45558582  0.42417220    -0.58400
H112        H  0.43957789  0.49441548  0.46018195     0.16200
O113        O  0.48052456  0.41826770  0.53721248    -0.59800
H114        H  0.44124856  0.37998965  0.50160140     0.14700
H115        H  0.30741985  0.37777926  0.49821432     0.46500
H116        H  0.38173540  0.46732925  0.43599267     0.41900
H117        H  0.99325111  0.41340336  0.53365170     0.45300
H118        H  0.43585930  0.36422739  0.40143236     0.36800
C119        C  0.11526992  0.35954799  0.43549863    -0.27400
C120        C  0.12508866  0.39201203  0.43941876     0.02200
C121        C  0.15738917  0.39903709  0.44991510     0.30300
C122        C  0.17975004  0.37359423  0.45519482    -0.19200
C123        C  0.17045913  0.34107886  0.44904423    -0.28600
C124        C  0.13770303  0.33417714  0.43985093     0.44300
C125        C  0.10237236  0.41790508  0.42796277     0.05500
O126        O  0.16728679  0.43066242  0.45471372    -0.57100
H127        H  0.20474820  0.37941120  0.46246177     0.18400
O128        O  0.12731595  0.30268568  0.43520489    -0.63900
H129        H  0.09043663  0.35391112  0.42738389     0.16900
C130        C  0.10762198  0.43371926  0.39494049     0.29100
C131        C  0.08359211  0.45424285  0.38101343    -0.24700
C132        C  0.05380964  0.45923063  0.39938103    -0.24000
C133        C  0.04918052  0.44454505  0.43337757     0.40600
C134        C  0.07330031  0.42370587  0.44720899    -0.26500
O135        O  0.13545588  0.42786486  0.37508766    -0.58400
H136        H  0.08786739  0.46539111  0.35498629     0.16200
O137        O  0.02022998  0.44820210  0.45180213    -0.59800
H138        H  0.06882868  0.41117083  0.47239466     0.14700
H139        H  0.12696327  0.29901324  0.40865701     0.46500
H140        H  0.13039100  0.40848357  0.35994211     0.41900
H141        H  0.53286351  0.46756817  0.46637840     0.45300
H142        H  0.17952684  0.43617629  0.43241190     0.36800
C143        C  0.36575419  0.10339564  0.45489018    -0.27400
C144        C  0.39136000  0.10656884  0.43001534     0.02200
C145        C  0.39496714  0.13577806  0.41098279     0.30300
C146        C  0.37257430  0.16117290  0.41626034    -0.19200
C147        C  0.34632468  0.15809984  0.44071483    -0.28600
C148        C  0.34350940  0.12894445  0.46065857     0.44300
C149        C  0.41321402  0.07878301  0.42209402     0.05500
O150        O  0.41947538  0.13912647  0.38588333    -0.57100
H151        H  0.37551125  0.18310666  0.40056423     0.18400
O152        O  0.31860436  0.12462212  0.48504822    -0.63900
H153        H  0.36280723  0.08089194  0.46958593     0.16900
C154        C  0.44529450  0.07787414  0.43574958     0.29100
C155        C  0.46740635  0.05437334  0.42290024    -0.24700
C156        C  0.45788375  0.03191360  0.39614058    -0.24000
C157        C  0.42512667  0.03155301  0.38430979     0.40600
C158        C  0.40295680  0.05477327  0.39754057    -0.26500
O159        O  0.45576050  0.10102855  0.45997550    -0.58400
H160        H  0.49254909  0.05511156  0.43200863     0.16200
O161        O  0.41477096  0.00890977  0.35936165    -0.59800
H162        H  0.37817562  0.05510007  0.38718379     0.14700
H163        H  0.32779769  0.13140645  0.50873819     0.46500
H164        H  0.44772327  0.09357437  0.48382437     0.41900
H165        H  0.91133517  0.02274389  0.34003355     0.45300
H166        H  0.43816828  0.14851984  0.39944424     0.36800
C167        C  0.22370106  0.24601058  0.25158876    -0.27400
C168        C  0.25296152  0.24845471  0.23196020     0.02200
C169        C  0.28273885  0.25139992  0.25072163     0.30300
C170        C  0.28296328  0.25171940  0.28852273    -0.19200
C171        C  0.25371676  0.24891221  0.30841605    -0.28600
C172        C  0.22385112  0.24601200  0.28940914     0.44300
C173        C  0.25221608  0.24787546  0.19194118     0.05500
O174        O  0.31183564  0.25371926  0.23235712    -0.57100
H175        H  0.30624686  0.25404341  0.30223265     0.18400
O176        O  0.19455906  0.24351010  0.30733632    -0.63900
H177        H  0.20054311  0.24423924  0.23751364     0.16900
C178        C  0.23714565  0.22217002  0.17293966     0.29100
C179        C  0.23726783  0.22184060  0.13512342    -0.24700
C180        C  0.25212769  0.24704106  0.11556404    -0.24000
C181        C  0.26684584  0.27301130  0.13475916     0.40600
C182        C  0.26684517  0.27319204  0.17256967    -0.26500
O183        O  0.22351628  0.19655154  0.19111355    -0.58400
H184        H  0.22594551  0.20151859  0.12113321     0.16200
O185        O  0.28106184  0.29853771  0.11702330    -0.59800
H186        H  0.27808441  0.29339116  0.18687209     0.14700
H187        H  0.19044204  0.21981007  0.30926809     0.46500
H188        H  0.19951851  0.19970820  0.18920217     0.41900
H189        H  0.26309623  0.31435935  0.11308697     0.45300
H190        H  0.31839790  0.23094386  0.22694737     0.36800
C191        C  0.30332749  0.33235136  0.96165055    -0.27400
C192        C  0.33661541  0.33229573  0.97111572     0.02200
C193        C  0.34859257  0.30759458  0.99371539     0.30300
C194        C  0.32716205  0.28432108  0.00768518    -0.19200
C195        C  0.29379041  0.28486298  0.99900346    -0.28600
C196        C  0.28198993  0.30870072  0.97523673     0.44300
C197        C  0.35788616  0.35998813  0.96093067     0.05500
O198        O  0.38060561  0.30771987  0.00481179    -0.57100
H199        H  0.33644703  0.26641959  0.02642106     0.18400
O200        O  0.24926671  0.31077996  0.96759462    -0.63900
H201        H  0.29368990  0.35144635  0.94467358     0.16900
C202        C  0.38732954  0.35516945  0.94179625     0.29100
C203        C  0.40889220  0.38122669  0.93667196    -0.24700
C204        C  0.40160741  0.41248402  0.95043574    -0.24000
C205        C  0.37126135  0.41748151  0.96809349     0.40600
C206        C  0.34970286  0.39141567  0.97297290    -0.26500
O207        O  0.39560689  0.32491090  0.92874026    -0.58400
H208        H  0.43183540  0.37664891  0.92279147     0.16200
O209        O  0.36233298  0.44769916  0.98076848    -0.59800
H210        H  0.32699716  0.39554395  0.98751669     0.14700
H211        H  0.24564330  0.29447650  0.94818857     0.46500
H212        H  0.38571324  0.32361673  0.90430990     0.41900
H213        H  0.36751849  0.44756603  0.00696125     0.45300
H214        H  0.39110009  0.28922550  0.99181932     0.36800
C215        C  0.18674736  0.16384315  0.96002706    -0.27400
C216        C  0.15652979  0.16024618  0.97760105     0.02200
C217        C  0.14936064  0.17945208  0.00822831     0.30300
C218        C  0.17249152  0.20145680  0.02142582    -0.19200
C219        C  0.20299506  0.20489872  0.00435619    -0.28600
C220        C  0.20995695  0.18604612  0.97327506     0.44300
C221        C  0.13328430  0.13479623  0.96607080     0.05500
O222        O  0.12053839  0.17539054  0.02672802    -0.57100
H223        H  0.16674722  0.21548610  0.04558014     0.18400
O224        O  0.23983057  0.18806124  0.95670533    -0.63900
H225        H  0.19261071  0.14887466  0.93661457     0.16900
C226        C  0.10260774  0.14313075  0.95174679     0.29100
C227        C  0.07871600  0.11916959  0.94685088    -0.24700
C228        C  0.08489035  0.08667837  0.95636620    -0.24000
C229        C  0.11629500  0.07820239  0.96920760     0.40600
C230        C  0.14025215  0.10220529  0.97369505    -0.26500
O231        O  0.09531527  0.17487438  0.94389867    -0.58400
H232        H  0.05490141  0.12629796  0.93681103     0.16200
O233        O  0.12390790  0.04657820  0.97735297    -0.59800
H234        H  0.16387672  0.09558465  0.98469436     0.14700
H235        H  0.25366094  0.17150046  0.96864851     0.46500
H236        H  0.10425672  0.17838319  0.91928852     0.41900
H237        H  0.12180436  0.04514959  0.00402276     0.45300
H238        H  0.10596008  0.19299826  0.01813186     0.36800
C239        C  0.98716817  0.48078704  0.67729524    -0.27400
C240        C  0.48926635  0.00759861  0.68986581     0.02200
C241        C  0.48652789  0.03706482  0.67070117     0.30300
C242        C  0.48710760  0.03690040  0.63276141    -0.19200
C243        C  0.99113485  0.01075042  0.61715631    -0.28600
C244        C  0.98623403  0.47973316  0.63947348     0.44300
C245        C  0.49091296  0.00714699  0.73017466     0.05500
O246        O  0.48301812  0.06616471  0.68875616    -0.57100
H247        H  0.48520379  0.05976426  0.61854195     0.18400
O248        O  0.98362849  0.45013008  0.62230649    -0.63900
H249        H  0.98609374  0.45815146  0.69202205     0.16900
C250        C  0.46643744  0.48928728  0.75196116     0.29100
C251        C  0.46761456  0.48857809  0.78976915    -0.24700
C252        C  0.49631730  0.00580361  0.80656357    -0.24000
C253        C  0.01193966  0.02715403  0.79171903     0.40600
C254        C  0.01115570  0.02844650  0.75389288    -0.26500
O255        O  0.44102298  0.47432607  0.73427936    -0.58400
H256        H  0.44885772  0.47549833  0.80441277     0.16200
O257        O  0.03438101  0.04571332  0.81012870    -0.59800
H258        H  0.02860911  0.04376544  0.74003111     0.14700
H259        H  0.00647822  0.44283907  0.61809502     0.46500
H260        H  0.44607148  0.45072772  0.73496669     0.41900
H261        H  0.05421606  0.03187902  0.81181332     0.45300
H262        H  0.45913404  0.06870178  0.69268115     0.36800
C263        C  0.50709674  0.47478794  0.22051448    -0.27400
C264        C  0.99732004  0.00272984  0.20610958     0.02200
C265        C  0.98174756  0.02649108  0.22765130     0.30300
C266        C  0.98350248  0.02471782  0.26532316    -0.19200
C267        C  0.50699445  0.99748774  0.28114077    -0.28600
C268        C  0.50906107  0.47278213  0.25809523     0.44300
C269        C  0.99548936  0.00378858  0.16630284     0.05500
O270        O  0.96498363  0.05167165  0.21209989    -0.57100
H271        H  0.97144912  0.04339550  0.28138696     0.18400
O272        O  0.52796252  0.44868251  0.27276221    -0.63900
H273        H  0.52027954  0.45714057  0.20409811     0.16900
C274        C  0.02890120  0.50339377  0.14909514     0.29100
C275        C  0.02795097  0.50450628  0.11125780    -0.24700
C276        C  0.50357509  0.00326638  0.08800855    -0.24000
C277        C  0.47448720  0.00207115  0.10875764     0.40600
C278        C  0.47600992  0.00113034  0.14654221    -0.26500
O279        O  0.05745050  0.51090697  0.16671322    -0.58400
H280        H  0.05012425  0.51064154  0.09674434     0.16200
O281        O  0.44436015  0.00104364  0.09253571    -0.59800
H282        H  0.45343485  0.99976075  0.16188009     0.14700
H283        H  0.51305529  0.42985575  0.27559427     0.46500
H284        H  0.07126575  0.49112133  0.16452566     0.41900
H285        H  0.43660635  0.02392608  0.09242351     0.45300
H286        H  0.98123456  0.06941352  0.20963791     0.36800
C287        C  0.21915611  0.25854208  0.72035776    -0.27400
C288        C  0.24462421  0.24184830  0.70284543     0.02200
C289        C  0.26717983  0.22396385  0.72321894     0.30300
C290        C  0.26460996  0.22357023  0.76087869    -0.19200
C291        C  0.23947099  0.24073652  0.77886455    -0.28600
C292        C  0.21620356  0.25783776  0.75805414     0.44300
C293        C  0.24789768  0.24358806  0.66326009     0.05500
O294        O  0.29272465  0.20806357  0.70659633    -0.57100
H295        H  0.28288306  0.21030361  0.77598627     0.18400
O296        O  0.19063266  0.27415268  0.77409167    -0.63900
H297        H  0.20148654  0.27211292  0.70469420     0.16900
C298        C  0.24185729  0.21612918  0.64145392     0.29100
C299        C  0.24612198  0.21791239  0.60404612    -0.24700
C300        C  0.25606616  0.24708585  0.58768796    -0.24000
C301        C  0.26208229  0.27464169  0.60980755     0.40600
C302        C  0.25779656  0.27274331  0.64729065    -0.26500
O303        O  0.23157136  0.18750010  0.65647366    -0.58400
H304        H  0.24098528  0.19647948  0.58776929     0.16200
O305        O  0.27218705  0.30351081  0.59523480    -0.59800
H306        H  0.26260048  0.29397501  0.66403534     0.14700
H307        H  0.17285946  0.25785765  0.77606633     0.46500
H308        H  0.20745359  0.18957235  0.65849077     0.41900
H309        H  0.29641361  0.30215169  0.59460471     0.45300
H310        H  0.28569887  0.18503627  0.70456823     0.36800
C311        C  0.35131532  0.10705338  0.95044904    -0.27400
C312        C  0.35678576  0.13571516  0.93108542     0.02200
C313        C  0.38853456  0.14272386  0.91867283     0.30300
C314        C  0.41410726  0.12083312  0.92483942    -0.19200
C315        C  0.40864992  0.09156072  0.94331963    -0.28600
C316        C  0.37693593  0.08514149  0.95685605     0.44300
C317        C  0.32896258  0.15681604  0.92091622     0.05500
O318        O  0.39457124  0.17036947  0.89925362    -0.57100
H319        H  0.43817119  0.12651711  0.91431905     0.18400
O320        O  0.37018911  0.05674888  0.97457520    -0.63900
H321        H  0.32691640  0.10132773  0.95996515     0.16900
C322        C  0.30464835  0.14501312  0.89735458     0.29100
C323        C  0.28128924  0.16632456  0.88336659    -0.24700
C324        C  0.28121344  0.19935575  0.89327091    -0.24000
C325        C  0.30453563  0.21090504  0.91820558     0.40600
C326        C  0.32829830  0.18964685  0.93181318    -0.26500
O327        O  0.30495885  0.11318950  0.88583941    -0.58400
H328        H  0.26355196  0.15716191  0.86407385     0.16200
O329        O  0.30523070  0.24313354  0.92806877    -0.59800
H330        H  0.34689145  0.19900142  0.94995830     0.14700
H331        H  0.37171514  0.06232107  0.00066904     0.46500
H332        H  0.28872982  0.10200715  0.90133694     0.41900
H333        H  0.32135520  0.25333436  0.91162383     0.45300
H334        H  0.38976117  0.16441035  0.87376450     0.36800
C335        C  0.13649797  0.38477588  0.95453524    -0.27400
C336        C  0.13111944  0.36096407  0.92789215     0.02200
C337        C  0.10204955  0.36157777  0.90775508     0.30300
C338        C  0.07891197  0.38610151  0.91398931    -0.19200
C339        C  0.08428297  0.41059778  0.94019849    -0.28600
C340        C  0.11326620  0.40932104  0.96104119     0.44300
C341        C  0.15697254  0.33714621  0.91873172     0.05500
O342        O  0.09637226  0.33864491  0.88131952    -0.57100
H343        H  0.05693153  0.38617063  0.89767892     0.18400
O344        O  0.11973577  0.43240883  0.98704151    -0.63900
H345        H  0.15901812  0.38459842  0.96994053     0.16900
C346        C  0.18281999  0.34614897  0.89579865     0.29100
C347        C  0.20442008  0.32248932  0.88250116    -0.24700
C348        C  0.20109883  0.28983313  0.89253252    -0.24000
C349        C  0.17629089  0.28105861  0.91699847     0.40600
C350        C  0.15411666  0.30466819  0.92966826    -0.26500
O351        O  0.18582524  0.37765810  0.88437208    -0.58400
H352        H  0.22335382  0.32949858  0.86355118     0.16200
O353        O  0.17204917  0.24918274  0.92645727    -0.59800
H354        H  0.13408107  0.29747868  0.94707781     0.14700
H355        H  0.11107255  0.42324612  0.00985675     0.46500
H356        H  0.19958889  0.38855910  0.90289686     0.41900
H357        H  0.18216890  0.24743646  0.95067092     0.45300
H358        H  0.10675122  0.34740330  0.85918206     0.36800
C359        C  0.27027289  0.73823085  0.87430281     0.80400
N360        N  0.26912380  0.73726420  0.83768301    -0.77900
C361        C  0.24941345  0.75780865  0.81929926     0.82900
N362        N  0.23064995  0.77940642  0.83794312    -0.77800
C363        C  0.23114370  0.78040632  0.87462731     0.82900
N364        N  0.25104589  0.75969916  0.89295258    -0.79600
Zn365      Zn  0.45156185  0.50377776  0.97678973     1.49700
Zn366      Zn  0.49570330  0.54171783  0.91930855     1.49400
Zn367      Zn  0.03796831  0.49987432  0.98206049     1.49100
Zn368      Zn  0.49899022  0.96589600  0.91580932     1.49500
O369        O  0.49178536  0.50209300  0.94796764    -1.83900
O370        O  0.42529368  0.54424450  0.96661035    -0.74600
O371        O  0.04152392  0.57032445  0.93716378    -0.74400
O372        O  0.02566517  0.49775632  0.03503101    -0.73900
O373        O  0.45692317  0.57100636  0.92822608    -0.74600
O374        O  0.46200784  0.50427160  0.02984959    -0.74200
O375        O  0.06769088  0.53878371  0.97598819    -0.74800
O376        O  0.03007607  0.93559950  0.92345520    -0.74200
O377        O  0.49716897  0.53069599  0.86612436    -0.74900
O378        O  0.05638916  0.95882579  0.96917864    -0.74300
O379        O  0.49510211  0.97830733  0.86300426    -0.74800
O380        O  0.46056422  0.93706617  0.92856864    -0.74700
O381        O  0.43514495  0.96526563  0.97162385    -0.74500
C382        C  0.43091630  0.56902849  0.94715235     0.77300
C383        C  0.06580617  0.56491324  0.95779763     0.77800
C384        C  0.48845948  0.50138617  0.04761826     0.76800
C385        C  0.05424516  0.93653422  0.94522728     0.77100
C386        C  0.49263491  0.50435299  0.84843895     0.78300
C387        C  0.43721148  0.94021084  0.95124832     0.77300
C388        C  0.23714296  0.72790626  0.02231066     0.80400
N389        N  0.24092277  0.72484445  0.05849874    -0.77900
C390        C  0.26532975  0.74041638  0.07627056     0.82900
N391        N  0.28603344  0.75954034  0.05729938    -0.77800
C392        C  0.28243501  0.76333075  0.02109687     0.82900
N393        N  0.25791108  0.74737186  0.00341325    -0.79600
C394        C  0.02743251  0.97993816  0.37555149     0.80400
N395        N  0.02598370  0.98124107  0.33892750    -0.77900
C396        C  0.00227755  0.49186953  0.32560849     0.82900
N397        N  0.47328598  0.51166822  0.34106709    -0.77800
C398        C  0.47607172  0.51187367  0.37762630     0.82900
N399        N  0.00476835  0.99637046  0.39572294    -0.79600
Zn400      Zn  0.25202403  0.70680217  0.47907663     1.49700
Zn401      Zn  0.24989831  0.78499919  0.47556171     1.49400
Zn402      Zn  0.29310713  0.74553640  0.41934231     1.49100
Zn403      Zn  0.21471524  0.74127421  0.41511248     1.49500
O404        O  0.25244264  0.74463430  0.44730423    -1.83900
O405        O  0.25143305  0.72142398  0.53116995    -0.74600
O406        O  0.28837157  0.81473929  0.46610272    -0.74400
O407        O  0.32047464  0.70620494  0.43009710    -0.73900
O408        O  0.24848527  0.77529052  0.52871315    -0.74600
O409        O  0.29154919  0.67862339  0.47035142    -0.74200
O410        O  0.31997511  0.78626570  0.42864117    -0.74800
O411        O  0.22928749  0.73836499  0.36330019    -0.74200
O412        O  0.20965646  0.81030770  0.46308503    -0.74900
O413        O  0.28328751  0.74357475  0.36626647    -0.74300
O414        O  0.18642739  0.78087512  0.41975220    -0.74800
O415        O  0.18592241  0.70275632  0.42655421    -0.74700
O416        O  0.21222129  0.67837525  0.47119063    -0.74500
C417        C  0.24950042  0.74911756  0.54684758     0.77300
C418        C  0.31437162  0.81192377  0.44727052     0.77800
C419        C  0.31658817  0.68142154  0.45009145     0.76800
C420        C  0.25713216  0.74033405  0.34797253     0.77100
C421        C  0.18705412  0.80609148  0.43992266     0.78300
C422        C  0.18804223  0.68004920  0.44963442     0.77300
C423        C  0.47421753  0.98368839  0.51761380     0.80400
N424        N  0.47336133  0.98455412  0.55431795    -0.77900
C425        C  0.98897925  0.50843973  0.57955307     0.82900
N426        N  0.00702008  0.53063508  0.56145597    -0.77800
C427        C  0.00813576  0.53054908  0.52476619     0.82900
N428        N  0.99540875  0.01074628  0.50342972    -0.79600
C429        C  0.06098906  0.60425298  0.50703076    -0.27400
C430        C  0.08012725  0.59350467  0.47776842     0.02200
C431        C  0.07353081  0.56295638  0.46183630     0.30300
C432        C  0.04875304  0.54317480  0.47606561    -0.19200
C433        C  0.03048084  0.55343748  0.50637184    -0.28600
C434        C  0.03635306  0.58460829  0.52127161     0.44300
C435        C  0.10780724  0.61399877  0.46567294     0.05500
O436        O  0.09168728  0.55191071  0.43299899    -0.57100
H437        H  0.04473039  0.51929354  0.46428404     0.18400
O438        O  0.01871537  0.59583733  0.55043936    -0.63900
H439        H  0.06583776  0.62766447  0.51961556     0.16900
C440        C  0.10230389  0.64570878  0.45300896     0.29100
C441        C  0.12879854  0.66631204  0.44603185    -0.24700
C442        C  0.16106063  0.65613532  0.45261259    -0.24000
C443        C  0.16661154  0.62394942  0.46414274     0.40600
C444        C  0.14007509  0.60310967  0.47040261    -0.26500
O445        O  0.07102495  0.65680292  0.44763906    -0.58400
H446        H  0.12395201  0.69087896  0.43706881     0.16200
O447        O  0.19778117  0.61281711  0.47006257    -0.59800
H448        H  0.14463979  0.57880410  0.48035440     0.14700
H449        H  0.99874507  0.60574057  0.54001886     0.46500
H450        H  0.06604941  0.67081895  0.46893511     0.41900
H451        H  0.20492738  0.60326085  0.44661430     0.45300
H452        H  0.08083809  0.56102113  0.41136167     0.36800
C453        C  0.35394406  0.89526610  0.45930800    -0.27400
C454        C  0.38727626  0.88741680  0.45625372     0.02200
C455        C  0.39622563  0.85532271  0.44674639     0.30300
C456        C  0.37219253  0.83132097  0.44241167    -0.19200
C457        C  0.33891432  0.83862195  0.44782504    -0.28600
C458        C  0.32985700  0.87118399  0.45537514     0.44300
C459        C  0.41234332  0.91139921  0.46814010     0.05500
O460        O  0.42855074  0.84685280  0.44314627    -0.57100
H461        H  0.37978066  0.80659457  0.43632609     0.18400
O462        O  0.29754026  0.87977487  0.45885541    -0.63900
H463        H  0.34659878  0.91980539  0.46662080     0.15100
C464        C  0.41507884  0.94254852  0.45269578     0.29100
C465        C  0.43691028  0.96551710  0.46751919    -0.24700
C466        C  0.45547388  0.95804965  0.49830656    -0.24000
C467        C  0.45359174  0.92642144  0.51264839     0.40600
C468        C  0.43225155  0.90353354  0.49762459    -0.26500
O469        O  0.39660638  0.95064922  0.42317778    -0.58400
H470        H  0.43808947  0.98964697  0.45607882     0.16200
O471        O  0.47195865  0.91778802  0.54204574    -0.59800
H472        H  0.43037746  0.87978566  0.50996284     0.14700
H473        H  0.29348901  0.88127324  0.48527666     0.46500
H474        H  0.37926075  0.96537418  0.43260098     0.41900
H475        H  0.00135938  0.91590683  0.53219791     0.45300
H476        H  0.43474065  0.85351541  0.41834918     0.36800
C477        C  0.11457953  0.85425688  0.40467964    -0.27400
C478        C  0.11746748  0.88312130  0.42477708     0.02200
C479        C  0.14177244  0.88597371  0.45128284     0.30300
C480        C  0.16355346  0.86025429  0.45681549    -0.19200
C481        C  0.16166046  0.83155977  0.43577583    -0.28600
C482        C  0.13643056  0.82857758  0.40985332     0.44300
C483        C  0.09678204  0.91099664  0.41528420     0.05500
O484        O  0.14501235  0.91413879  0.47112330    -0.57100
H485        H  0.18255251  0.86325556  0.47694053     0.18400
O486        O  0.13300276  0.80094529  0.38911143    -0.63900
H487        H  0.09580967  0.85201481  0.38414645     0.16900
C488        C  0.10250762  0.92742937  0.38282709     0.29100
C489        C  0.08079238  0.95144329  0.37162831    -0.24700
C490        C  0.05274007  0.95909952  0.39213094    -0.24000
C491        C  0.04805694  0.94380602  0.42576782     0.40600
C492        C  0.07008443  0.91978811  0.43710335    -0.26500
O493        O  0.12905196  0.91972433  0.36159782    -0.58400
H494        H  0.08534216  0.96323313  0.34601414     0.16200
O495        O  0.02092469  0.95031128  0.44642577    -0.59800
H496        H  0.06559686  0.90710051  0.46219030     0.14700
H497        H  0.14430968  0.80572846  0.36599845     0.46500
H498        H  0.12072644  0.90409477  0.34322446     0.41900
H499        H  0.52560461  0.95656878  0.46779826     0.45300
H500        H  0.15936901  0.92830324  0.45642844     0.36800
C501        C  0.35758190  0.59847892  0.45669823    -0.27400
C502        C  0.38752721  0.60445532  0.43947342     0.02200
C503        C  0.39464729  0.63600952  0.42738273     0.30300
C504        C  0.37173166  0.66096996  0.43206362    -0.19200
C505        C  0.34139886  0.65507130  0.44874599    -0.28600
C506        C  0.33464014  0.62348426  0.46160793     0.44300
C507        C  0.40929702  0.57703418  0.42970003     0.05500
O508        O  0.42281974  0.64203876  0.40834151    -0.57100
H509        H  0.37747237  0.68484929  0.42164068     0.18400
O510        O  0.30495069  0.61617756  0.47685059    -0.63900
H511        H  0.35160217  0.57408903  0.46541108     0.16900
C512        C  0.44231104  0.57633316  0.44052398     0.29100
C513        C  0.46375665  0.55344681  0.42512507    -0.24700
C514        C  0.45255463  0.53127131  0.39891840    -0.24000
C515        C  0.41907576  0.53063992  0.39000846     0.40600
C516        C  0.39764324  0.55318576  0.40571663    -0.26500
O517        O  0.45410573  0.59890448  0.46469958    -0.58400
H518        H  0.48944029  0.55428768  0.43203542     0.16200
O519        O  0.40723059  0.50837523  0.36546140    -0.59800
H520        H  0.37221986  0.55328750  0.39744287     0.14700
H521        H  0.30848063  0.61780828  0.50333020     0.46500
H522        H  0.45158926  0.58874251  0.48876603     0.41900
H523        H  0.91172399  0.52281335  0.33777047     0.45300
H524        H  0.43716888  0.65415436  0.42533051     0.36800
C525        C  0.23518159  0.74434942  0.24843711    -0.27400
C526        C  0.26500606  0.73575514  0.23214952     0.02200
C527        C  0.29221115  0.72879084  0.25393518     0.30300
C528        C  0.28933411  0.73048086  0.29157910    -0.19200
C529        C  0.25936258  0.73877597  0.30807069    -0.28600
C530        C  0.23211477  0.74571574  0.28604827     0.44300
C531        C  0.26735923  0.73472579  0.19234965     0.05500
O532        O  0.32163413  0.72014955  0.23869459    -0.57100
H533        H  0.31057120  0.72491862  0.30789349     0.18400
O534        O  0.20276218  0.75518118  0.30086436    -0.63900
H535        H  0.21423851  0.75039668  0.23186593     0.16900
C536        C  0.24644562  0.71465681  0.17200317     0.29100
C537        C  0.24700300  0.71597360  0.13430445    -0.24700
C538        C  0.26797840  0.73753931  0.11614776    -0.24000
C539        C  0.28982637  0.75683548  0.13676489     0.40600
C540        C  0.28941347  0.75518872  0.17454273    -0.26500
O541        O  0.22571900  0.69331107  0.18882031    -0.58400
H542        H  0.23038871  0.70037816  0.11938073     0.16200
O543        O  0.31136494  0.77772930  0.12054869    -0.59800
H544        H  0.30565695  0.77074275  0.19004509     0.14700
H545        H  0.18911277  0.73524955  0.30097634     0.46500
H546        H  0.20368385  0.70334004  0.18723638     0.41900
H547        H  0.30001884  0.79908010  0.12026299     0.45300
H548        H  0.32022171  0.69631323  0.23458192     0.36800
C549        C  0.31388049  0.83437139  0.96642379    -0.27400
C550        C  0.34725801  0.83396751  0.97537092     0.02200
C551        C  0.35942931  0.80878752  0.99712953     0.30300
C552        C  0.33815246  0.78512297  0.01054768    -0.19200
C553        C  0.30467284  0.78581957  0.00222741    -0.28600
C554        C  0.29263901  0.81041143  0.97955810     0.44300
C555        C  0.36854779  0.86165145  0.96541109     0.05500
O556        O  0.39155669  0.80865999  0.00781224    -0.57100
H557        H  0.34770003  0.76665757  0.02842893     0.18400
O558        O  0.25984179  0.81271345  0.97243228    -0.63900
H559        H  0.30412112  0.85388529  0.95012966     0.16900
C560        C  0.39712824  0.85703385  0.94469507     0.29100
C561        C  0.41878698  0.88297239  0.93942939    -0.24700
C562        C  0.41245313  0.91388368  0.95465099    -0.24000
C563        C  0.38298547  0.91868177  0.97413828     0.40600
C564        C  0.36130890  0.89274522  0.97912074    -0.26500
O565        O  0.40445360  0.82708107  0.93013287    -0.58400
H566        H  0.44103105  0.87858156  0.92414929     0.16200
O567        O  0.37496815  0.94859923  0.98837762    -0.59800
H568        H  0.33926155  0.89667395  0.99492183     0.14700
H569        H  0.25714375  0.80238412  0.94843606     0.46500
H570        H  0.39275049  0.82627088  0.90668097     0.41900
H571        H  0.38128822  0.94761645  0.01423077     0.45300
H572        H  0.40208765  0.79099661  0.99348900     0.36800
C573        C  0.19309295  0.66677038  0.96286871    -0.27400
C574        C  0.16252744  0.66545506  0.98010807     0.02200
C575        C  0.15556867  0.68720851  0.00867709     0.30300
C576        C  0.17969162  0.70866224  0.02101132    -0.19200
C577        C  0.21068652  0.70932745  0.00461712    -0.28600
C578        C  0.21697630  0.68880837  0.97473793     0.44300
C579        C  0.13910541  0.63938714  0.97078679     0.05500
O580        O  0.12608685  0.68596912  0.02640482    -0.57100
H581        H  0.17452511  0.72412798  0.04423295     0.18400
O582        O  0.24706912  0.68856466  0.95853613    -0.63900
H583        H  0.19872608  0.65003521  0.94090119     0.16900
C584        C  0.10901982  0.64649237  0.95434114     0.29100
C585        C  0.08574811  0.62188787  0.94950102    -0.24700
C586        C  0.09190132  0.58991870  0.96115553    -0.24000
C587        C  0.12260342  0.58277457  0.97675139     0.40600
C588        C  0.14595657  0.60739054  0.98114343    -0.26500
O589        O  0.10181543  0.67759091  0.94377739    -0.58400
H590        H  0.06247256  0.62811450  0.93741237     0.16200
O591        O  0.13021726  0.55184011  0.98757748    -0.59800
H592        H  0.16914053  0.60170269  0.99379728     0.14700
H593        H  0.24689126  0.70813892  0.94322179     0.46500
H594        H  0.11211350  0.67986483  0.91962199     0.41900
H595        H  0.12607462  0.55170619  0.01401956     0.45300
H596        H  0.11263484  0.70339713  0.01548372     0.36800
C597        C  0.99023172  0.98121866  0.67395381    -0.27400
C598        C  0.48995955  0.50701062  0.69246024     0.02200
C599        C  0.48971775  0.53662642  0.67362005     0.30300
C600        C  0.49020298  0.53652730  0.63579509    -0.19200
C601        C  0.98877738  0.50872825  0.61958238    -0.28600
C602        C  0.99100402  0.98113068  0.63613525     0.44300
C603        C  0.49036268  0.50651136  0.73250738     0.05500
O604        O  0.48882414  0.56579672  0.69192923    -0.57100
H605        H  0.49008239  0.55956536  0.62176818     0.18400
O606        O  0.99236434  0.95185940  0.61807995    -0.63900
H607        H  0.99106461  0.95817021  0.68789421     0.16900
C608        C  0.47200558  0.98519405  0.75060924     0.29100
C609        C  0.47498670  0.98451636  0.78839834    -0.24700
C610        C  0.49224292  0.50521915  0.80866110    -0.24000
C611        C  0.01864504  0.52767537  0.79200129     0.40600
C612        C  0.01671523  0.52757196  0.75418780    -0.26500
O613        O  0.44942620  0.96541094  0.73404208    -0.58400
H614        H  0.45996347  0.96776581  0.80361606     0.16200
O615        O  0.04385189  0.54384021  0.80869556    -0.59800
H616        H  0.03537554  0.54011040  0.73884518     0.14700
H617        H  0.01599219  0.94761682  0.61402694     0.46500
H618        H  0.45818575  0.94299156  0.73623964     0.41900
H619        H  0.06142971  0.52737996  0.81140951     0.45300
H620        H  0.46533016  0.56985547  0.69704440     0.36800
C621        C  0.52475151  0.97650040  0.22237820    -0.27400
C622        C  0.00077221  0.49484535  0.20884121     0.02200
C623        C  0.97975698  0.51475392  0.22957828     0.30300
C624        C  0.98031725  0.51321937  0.26734442    -0.19200
C625        C  0.49195208  0.49534903  0.28016537    -0.28600
C626        C  0.52496930  0.97470864  0.26018547     0.44300
C627        C  0.00040002  0.49602767  0.16877646     0.05500
O628        O  0.95881347  0.53613095  0.21318039    -0.57100
H629        H  0.96402265  0.52907182  0.28252795     0.18400
O630        O  0.54253417  0.95030816  0.27618234    -0.63900
H631        H  0.53820783  0.95847498  0.20677313     0.16900
C632        C  0.02410027  0.00588764  0.14536143     0.29100
C633        C  0.02203837  0.00583635  0.10766995    -0.24700
C634        C  0.48764678  0.50185490  0.08772563    -0.24000
C635        C  0.45795677  0.50154535  0.10743570     0.40600
C636        C  0.45847452  0.50103011  0.14528170    -0.26500
O637        O  0.05411166  0.00899145  0.16158415    -0.58400
H638        H  0.04448220  0.00770381  0.09218738     0.16200
O639        O  0.42830324  0.50081054  0.09016103    -0.59800
H640        H  0.43553806  0.49986367  0.15996551     0.14700
H641        H  0.52685341  0.93211379  0.27903634     0.46500
H642        H  0.06433962  0.98713693  0.15970640     0.41900
H643        H  0.42124052  0.52387273  0.08885859     0.45300
H644        H  0.97192048  0.55606224  0.20913522     0.36800
C645        C  0.22102914  0.76550601  0.72200996    -0.27400
C646        C  0.24828157  0.75331557  0.70319832     0.02200
C647        C  0.27585984  0.74280853  0.72254411     0.30300
C648        C  0.27585788  0.74445389  0.76032008    -0.19200
C649        C  0.24854797  0.75650969  0.77935208    -0.28600
C650        C  0.22087532  0.76695742  0.75980055     0.44300
C651        C  0.24783144  0.75204955  0.66331566     0.05500
O652        O  0.30343351  0.73232616  0.70463343    -0.57100
H653        H  0.29753199  0.73667095  0.77469780     0.18400
O654        O  0.19338656  0.77823275  0.77722486    -0.63900
H655        H  0.19963431  0.77355657  0.70729864     0.16900
C656        C  0.25105152  0.72230268  0.64459041     0.29100
C657        C  0.25153005  0.72176765  0.60681767    -0.24700
C658        C  0.24848611  0.75068136  0.58697682    -0.24000
C659        C  0.24449687  0.78045970  0.60600799     0.40600
C660        C  0.24404993  0.78087107  0.64383990    -0.26500
O661        O  0.25356279  0.69357244  0.66298093    -0.58400
H662        H  0.25429967  0.69852384  0.59309380     0.16200
O663        O  0.24055627  0.80927682  0.58809431    -0.59800
H664        H  0.24118889  0.80387622  0.65807265     0.14700
H665        H  0.18010042  0.75858025  0.78213112     0.46500
H666        H  0.23069135  0.68686828  0.66788409     0.41900
H667        H  0.26271298  0.81904280  0.58708810     0.45300
H668        H  0.30441582  0.70850717  0.70858578     0.36800
C669        C  0.35141232  0.61739252  0.95290878    -0.27400
C670        C  0.36029523  0.64603780  0.93502607     0.02200
C671        C  0.39306325  0.65042747  0.92444687     0.30300
C672        C  0.41595004  0.62565757  0.92988987    -0.19200
C673        C  0.40678325  0.59607224  0.94581197    -0.28600
C674        C  0.37435289  0.59258577  0.95857262     0.44300
C675        C  0.33480572  0.66936896  0.92341725     0.05500
O676        O  0.40265361  0.67822123  0.90712669    -0.57100
H677        H  0.44079209  0.62933387  0.92051145     0.18400
O678        O  0.36422239  0.56441065  0.97470037    -0.63900
H679        H  0.32630263  0.61381332  0.96144141     0.16900
C680        C  0.30982477  0.65901069  0.89982552     0.29100
C681        C  0.28873991  0.68179546  0.88448298    -0.24700
C682        C  0.29156659  0.71496212  0.89299989    -0.24000
C683        C  0.31573636  0.72533075  0.91750191     0.40600
C684        C  0.33720138  0.70255148  0.93261166    -0.26500
O685        O  0.30724326  0.62692123  0.88969664    -0.58400
H686        H  0.27025005  0.67356363  0.86554755     0.16200
O687        O  0.31958700  0.75774352  0.92536771    -0.59800
H688        H  0.35638237  0.71088897  0.95061035     0.14700
H689        H  0.36682374  0.56839462  0.00103049     0.46500
H690        H  0.28903602  0.61815395  0.90445174     0.41900
H691        H  0.33553365  0.76581749  0.90731028     0.45300
H692        H  0.39937943  0.67362043  0.88100941     0.36800
C693        C  0.13668347  0.89348448  0.95357082    -0.27400
C694        C  0.13237437  0.86693535  0.93011933     0.02200
C695        C  0.10193056  0.86222404  0.91329435     0.30300
C696        C  0.07643535  0.88445453  0.91926157    -0.19200
C697        C  0.08077340  0.91175454  0.94198868    -0.28600
C698        C  0.11114853  0.91563421  0.95991809     0.44300
C699        C  0.16057316  0.84617904  0.92012480     0.05500
O700        O  0.09718054  0.83639949  0.89014415    -0.57100
H701        H  0.05342612  0.88062276  0.90539286     0.18400
O702        O  0.11683688  0.94180443  0.98229579    -0.63900
H703        H  0.16019885  0.89746326  0.96633532     0.16900
C704        C  0.18274254  0.85669732  0.89361187     0.29100
C705        C  0.20659506  0.83535869  0.88021646    -0.24700
C706        C  0.20927290  0.80359968  0.89354367    -0.24000
C707        C  0.18835875  0.79369356  0.92171051     0.40600
C708        C  0.16386491  0.81487935  0.93454112    -0.26500
O709        O  0.17990334  0.88712206  0.87899220    -0.58400
H710        H  0.22251427  0.84335298  0.85857444     0.16200
O711        O  0.18998442  0.76264204  0.93481671    -0.59800
H712        H  0.14680503  0.80655761  0.95491927     0.14700
H713        H  0.11192955  0.93395642  0.00700376     0.46500
H714        H  0.19403662  0.90128908  0.89414894     0.41900
H715        H  0.20225253  0.76462513  0.95781364     0.45300
H716        H  0.10442312  0.84417433  0.86611071     0.36800
C717        C  0.76264097  0.23183149  0.87246980     0.80400
N718        N  0.76353093  0.23188099  0.83579880    -0.77900
C719        C  0.74662376  0.25442039  0.81681280     0.82900
N720        N  0.72854742  0.27688592  0.83502751    -0.77800
C721        C  0.72694100  0.27687748  0.87165998     0.82900
N722        N  0.74419054  0.25431642  0.89050206    -0.79600
Zn723      Zn  0.95156633  0.00359422  0.98055433     1.49700
Zn724      Zn  0.99360872  0.04139567  0.92166049     1.49400
Zn725      Zn  0.54049120  0.00362835  0.97672822     1.49100
Zn726      Zn  0.99594796  0.46712656  0.91879604     1.49500
O727        O  0.99091229  0.00168673  0.95009075    -1.83900
O728        O  0.92300381  0.04254561  0.96875907    -0.74600
O729        O  0.54021100  0.07248165  0.92822122    -0.74400
O730        O  0.52968808  0.00194849  0.03010771    -0.73900
O731        O  0.95369269  0.06938255  0.92958309    -0.74600
O732        O  0.96366091  0.00583736  0.03343048    -0.74200
O733        O  0.56757671  0.04378386  0.96876923    -0.74800
O734        O  0.53085310  0.43634333  0.92267792    -0.74200
O735        O  0.99528317  0.03069300  0.86856633    -0.74900
O736        O  0.55735224  0.45965251  0.96824621    -0.74300
O737        O  0.99314197  0.48182551  0.86733013    -0.74800
O738        O  0.95636621  0.43977538  0.92842376    -0.74700
O739        O  0.93075261  0.46684080  0.97224478    -0.74500
C740        C  0.92750802  0.06680769  0.94811133     0.77300
C741        C  0.56458848  0.06896863  0.94923802     0.77800
C742        C  0.99073655  0.00262498  0.05002374     0.76800
C743        C  0.55508949  0.43732989  0.94430506     0.77100
C744        C  0.99063761  0.00471880  0.85029241     0.78300
C745        C  0.93252365  0.44282777  0.95035682     0.77300
C746        C  0.72972371  0.23518712  0.02020200     0.80400
N747        N  0.73177648  0.23411457  0.05673895    -0.77900
C748        C  0.75485546  0.25145379  0.07465039     0.82900
N749        N  0.77600974  0.27007908  0.05573531    -0.77800
C750        C  0.77414181  0.27164248  0.01917627     0.82900
N751        N  0.75099292  0.25402876  0.00126111    -0.79600
C752        C  0.52251478  0.47801572  0.37281320     0.80400
N753        N  0.51919607  0.47821966  0.33628991    -0.77900
C754        C  0.50685184  0.99671605  0.32130463     0.82900
N755        N  0.97982759  0.01449989  0.34229325    -0.77800
C756        C  0.98079664  0.01357405  0.37893350     0.82900
N757        N  0.50086885  0.49516601  0.39363530    -0.79600
Zn758      Zn  0.75390258  0.20810388  0.47605958     1.49700
Zn759      Zn  0.75119930  0.28651583  0.47355197     1.49400
Zn760      Zn  0.79490277  0.24741384  0.41661584     1.49100
Zn761      Zn  0.71566424  0.24341153  0.41377376     1.49500
O762        O  0.75406064  0.24633449  0.44492899    -1.83900
O763        O  0.75449305  0.22236534  0.52812879    -0.74600
O764        O  0.78972497  0.31562637  0.46447022    -0.74400
O765        O  0.82287801  0.20793126  0.42737197    -0.73900
O766        O  0.75086624  0.27625471  0.52640868    -0.74600
O767        O  0.79344268  0.17982513  0.46670583    -0.74200
O768        O  0.82163346  0.28867507  0.42601086    -0.74800
O769        O  0.73008083  0.24042947  0.36217796    -0.74200
O770        O  0.71108309  0.31302678  0.46179645    -0.74900
O771        O  0.78415315  0.24551090  0.36343255    -0.74300
O772        O  0.68785620  0.28361204  0.41853237    -0.74800
O773        O  0.68651090  0.20476615  0.42503698    -0.74700
O774        O  0.71354843  0.18010451  0.46878905    -0.74500
C775        C  0.75279010  0.24991426  0.54412860     0.77300
C776        C  0.81568039  0.31378548  0.44550318     0.77800
C777        C  0.81882545  0.18287467  0.44699492     0.76800
C778        C  0.75749578  0.24226769  0.34593231     0.77100
C779        C  0.68851057  0.30895937  0.43854191     0.78300
C780        C  0.68893676  0.18179499  0.44780023     0.77300
C781        C  0.97222202  0.48562776  0.52381117     0.80400
N782        N  0.97175181  0.48588916  0.56057599    -0.77900
C783        C  0.48969246  0.00776521  0.57319528     0.82900
N784        N  0.50732875  0.03033271  0.55502631    -0.77800
C785        C  0.50896531  0.02958805  0.51825128     0.82900
N786        N  0.49504101  0.50978979  0.50268508    -0.79600
C787        C  0.55788602  0.10536940  0.49683821    -0.27400
C788        C  0.58076035  0.09330638  0.47173204     0.02200
C789        C  0.57789729  0.06091242  0.45933470     0.30300
C790        C  0.55303690  0.04081792  0.47294663    -0.19200
C791        C  0.53121610  0.05244750  0.49955361    -0.28600
C792        C  0.53344547  0.08520269  0.51090929     0.44300
C793        C  0.60898539  0.11404413  0.46143681     0.05500
O794        O  0.60002373  0.04835186  0.43499690    -0.57100
H795        H  0.55188367  0.01565730  0.46405307     0.18400
O796        O  0.51258792  0.09740461  0.53681235    -0.63900
H797        H  0.55987097  0.13017527  0.50677041     0.16900
C798        C  0.60449054  0.14308675  0.44220598     0.29100
C799        C  0.63096584  0.16421648  0.43659260    -0.24700
C800        C  0.66217159  0.15724816  0.45069121    -0.24000
C801        C  0.66676715  0.12743843  0.46884264     0.40600
C802        C  0.64034802  0.10621068  0.47401036    -0.26500
O803        O  0.57427239  0.15097500  0.42877470    -0.58400
H804        H  0.62670305  0.18668997  0.42224806     0.16200
O805        O  0.69677834  0.11902250  0.48241949    -0.59800
H806        H  0.64413478  0.08399023  0.48900512     0.14700
H807        H  0.49525397  0.10892886  0.52325684     0.46500
H808        H  0.56467909  0.16638462  0.44668155     0.41900
H809        H  0.70806379  0.10738030  0.46234996     0.45300
H810        H  0.59012777  0.05200045  0.41090757     0.36800
C811        C  0.85344887  0.39681023  0.46502442    -0.27400
C812        C  0.88660232  0.39080360  0.45793890     0.02200
C813        C  0.89594748  0.36044979  0.44322715     0.30300
C814        C  0.87248893  0.33598785  0.43771010    -0.19200
C815        C  0.83948831  0.34119784  0.44708097    -0.28600
C816        C  0.83001130  0.37236963  0.45992659     0.44300
C817        C  0.91133652  0.41454911  0.47091440     0.05500
O818        O  0.92817251  0.35406562  0.43551548    -0.57100
H819        H  0.88042454  0.31246426  0.42752021     0.18400
O820        O  0.79790137  0.37924572  0.46782142    -0.63900
H821        H  0.84588476  0.42004337  0.47637647     0.15100
C822        C  0.91236716  0.44676783  0.45821189     0.29100
C823        C  0.93352549  0.46951248  0.47443568    -0.24700
C824        C  0.95308374  0.46072734  0.50397412    -0.24000
C825        C  0.95256244  0.42827427  0.51594694     0.40600
C826        C  0.93197409  0.40551954  0.49935759    -0.26500
O827        O  0.89277113  0.45616147  0.43009001    -0.58400
H828        H  0.93343817  0.49438414  0.46511186     0.16200
O829        O  0.97160803  0.41865004  0.54441764    -0.59800
H830        H  0.93118647  0.38093791  0.50969038     0.14700
H831        H  0.79610242  0.37757661  0.49449950     0.46500
H832        H  0.87477192  0.46892330  0.44137896     0.41900
H833        H  0.50238958  0.41408888  0.52643577     0.45300
H834        H  0.93110067  0.36045977  0.40991656     0.36800
C835        C  0.61483410  0.35579656  0.40362737    -0.27400
C836        C  0.61784685  0.38542369  0.42227289     0.02200
C837        C  0.64290060  0.38937497  0.44784556     0.30300
C838        C  0.66521245  0.36400269  0.45371780    -0.19200
C839        C  0.66304034  0.33451825  0.43404635    -0.28600
C840        C  0.63712599  0.33054397  0.40911829     0.44300
C841        C  0.59609323  0.41256937  0.41226268     0.05500
O842        O  0.64628814  0.41818808  0.46645934    -0.57100
H843        H  0.68474187  0.36780742  0.47304426     0.18400
O844        O  0.63330080  0.30219711  0.38972582    -0.63900
H845        H  0.59545923  0.35252811  0.38396271     0.16900
C846        C  0.59841723  0.42592099  0.37756509     0.29100
C847        C  0.57532767  0.44859279  0.36614412    -0.24700
C848        C  0.54912378  0.45806874  0.38865667    -0.24000
C849        C  0.54780006  0.44589819  0.42422969     0.40600
C850        C  0.57123485  0.42319176  0.43576962    -0.26500
O851        O  0.62307437  0.41656820  0.35443171    -0.58400
H852        H  0.57747560  0.45797503  0.33895589     0.16200
O853        O  0.52262913  0.45423823  0.44702686    -0.59800
H854        H  0.56919366  0.41286912  0.46254021     0.14700
H855        H  0.64390023  0.30623261  0.36602745     0.46500
H856        H  0.61312545  0.40014523  0.33801746     0.41900
H857        H  0.02597049  0.45990986  0.47445445     0.45300
H858        H  0.66103451  0.43160147  0.45136695     0.36800
C859        C  0.86010426  0.09991625  0.45472907    -0.27400
C860        C  0.89002801  0.10568153  0.43742536     0.02200
C861        C  0.89722555  0.13715928  0.42514713     0.30300
C862        C  0.87422475  0.16218384  0.42933106    -0.19200
C863        C  0.84380831  0.15648471  0.44598447    -0.28600
C864        C  0.83722319  0.12504005  0.45949767     0.44300
C865        C  0.91198044  0.07818188  0.42830335     0.05500
O866        O  0.92571313  0.14310144  0.40666364    -0.57100
H867        H  0.88000715  0.18596715  0.41868184     0.18400
O868        O  0.80784095  0.11800907  0.47559266    -0.63900
H869        H  0.85417720  0.07563886  0.46385526     0.16900
C870        C  0.94430379  0.07681447  0.44133648     0.29100
C871        C  0.96628720  0.05388490  0.42696343    -0.24700
C872        C  0.95629282  0.03236438  0.39950806    -0.24000
C873        C  0.92332718  0.03220280  0.38847795     0.40600
C874        C  0.90135352  0.05484096  0.40312984    -0.26500
O875        O  0.95497011  0.09875739  0.46681022    -0.58400
H876        H  0.99156804  0.05423606  0.43566507     0.16200
O877        O  0.91256900  0.01033802  0.36287937    -0.59800
H878        H  0.87641527  0.05538328  0.39324868     0.14700
H879        H  0.81195479  0.11985194  0.50195402     0.46500
H880        H  0.95038368  0.08838826  0.49039146     0.41900
H881        H  0.41400843  0.02056924  0.33600683     0.45300
H882        H  0.94040858  0.15370175  0.42450714     0.36800
C883        C  0.73085179  0.23731800  0.24762314    -0.27400
C884        C  0.76061595  0.24194385  0.22965128     0.02200
C885        C  0.78951029  0.24571803  0.24974232     0.30300
C886        C  0.78827036  0.24531364  0.28753124    -0.19200
C887        C  0.75833577  0.24113251  0.30583679    -0.28600
C888        C  0.72948208  0.23673333  0.28531123     0.44300
C889        C  0.76082549  0.24370784  0.18990368     0.05500
O890        O  0.81900388  0.25003876  0.23268214    -0.57100
H891        H  0.81080728  0.24861804  0.30246760     0.18400
O892        O  0.69961193  0.23263468  0.30161698    -0.63900
H893        H  0.70841534  0.23467029  0.23231629     0.16900
C894        C  0.74959108  0.21742915  0.16879710     0.29100
C895        C  0.74795349  0.22028709  0.13126161    -0.24700
C896        C  0.75730304  0.24925168  0.11428614    -0.24000
C897        C  0.76866864  0.27556726  0.13552250     0.40600
C898        C  0.77050700  0.27257321  0.17308381    -0.26500
O899        O  0.74102997  0.18859169  0.18463191    -0.58400
H900        H  0.73953289  0.19966219  0.11538866     0.16200
O901        O  0.77722948  0.30454975  0.12003623    -0.59800
H902        H  0.77870765  0.29311516  0.18923835     0.14700
H903        H  0.69645052  0.20874359  0.30279065     0.46500
H904        H  0.71676469  0.18837175  0.18472454     0.41900
H905        H  0.75662528  0.31727700  0.11883435     0.45300
H906        H  0.82716765  0.22776317  0.22735470     0.36800
C907        C  0.80826859  0.33776024  0.95936809    -0.27400
C908        C  0.84082485  0.33889295  0.97122394     0.02200
C909        C  0.85180365  0.31622883  0.99678404     0.30300
C910        C  0.83000431  0.29355012  0.01105225    -0.19200
C911        C  0.79723553  0.29282926  0.99989673    -0.28600
C912        C  0.78653789  0.31476910  0.97340942     0.44300
C913        C  0.86219996  0.36603170  0.96041742     0.05500
O914        O  0.88305910  0.31785116  0.01014616    -0.57100
H915        H  0.83851329  0.27706617  0.03173629     0.18400
O916        O  0.75442232  0.31552650  0.96305293    -0.63900
H917        H  0.79946654  0.35542286  0.94008779     0.16900
C918        C  0.89222115  0.36031655  0.94284509     0.29100
C919        C  0.91436948  0.38586651  0.93831105    -0.24700
C920        C  0.90702838  0.41732344  0.95131695    -0.24000
C921        C  0.87603597  0.42330740  0.96696626     0.40600
C922        C  0.85384655  0.39775441  0.97117819    -0.26500
O923        O  0.90060909  0.32960797  0.93128575    -0.58400
H924        H  0.93787673  0.38069798  0.92591052     0.16200
O925        O  0.86717526  0.45397181  0.97829121    -0.59800
H926        H  0.83061873  0.40244925  0.98444982     0.14700
H927        H  0.75333829  0.30038296  0.94222433     0.46500
H928        H  0.89286206  0.32818405  0.90592858     0.41900
H929        H  0.87056830  0.45417083  0.00484691     0.45300
H930        H  0.89493819  0.29944769  0.99854891     0.36800
C931        C  0.68896946  0.17362295  0.95835997    -0.27400
C932        C  0.65752121  0.17220862  0.97361855     0.02200
C933        C  0.64935895  0.19332842  0.00243454     0.30300
C934        C  0.67290353  0.21454015  0.01651933    -0.19200
C935        C  0.70461194  0.21534076  0.00197371    -0.28600
C936        C  0.71246608  0.19501606  0.97240236     0.44300
C937        C  0.63483527  0.14591960  0.96275133     0.05500
O938        O  0.61929271  0.19150595  0.01886921    -0.57100
H939        H  0.66660957  0.22983983  0.03953841     0.18400
O940        O  0.74349618  0.19460638  0.95840011    -0.63900
H941        H  0.69565461  0.15721894  0.93644209     0.16900
C942        C  0.60338020  0.15269470  0.94935084     0.29100
C943        C  0.58104594  0.12731510  0.94383262    -0.24700
C944        C  0.58958891  0.09498077  0.95178347    -0.24000
C945        C  0.62165722  0.08821424  0.96370807     0.40600
C946        C  0.64400649  0.11356287  0.96878580    -0.26500
O947        O  0.59395651  0.18408918  0.94253219    -0.58400
H948        H  0.55663177  0.13310614  0.93449519     0.16200
O949        O  0.63153694  0.05689002  0.97021407    -0.59800
H950        H  0.66824892  0.10803712  0.97887084     0.14700
H951        H  0.75539514  0.17778775  0.97225357     0.46500
H952        H  0.60285572  0.18894725  0.91820356     0.41900
H953        H  0.63025605  0.05441823  0.99684043     0.45300
H954        H  0.60715971  0.21100483  0.01067746     0.36800
C955        C  0.49023063  0.47759589  0.67286046    -0.27400
C956        C  0.98913137  0.01053051  0.69373424     0.02200
C957        C  0.98925513  0.04019529  0.67477582     0.30300
C958        C  0.99063609  0.04013425  0.63686927    -0.19200
C959        C  0.48931147  0.00753595  0.61323590    -0.28600
C960        C  0.49036847  0.47746435  0.63501799     0.44300
C961        C  0.98868068  0.00967992  0.73400306     0.05500
O962        O  0.98768215  0.06939287  0.69296894    -0.57100
H963        H  0.99066406  0.06315907  0.62281930     0.18400
O964        O  0.49139064  0.44823044  0.61685670    -0.63900
H965        H  0.49092974  0.45461940  0.68697495     0.16900
C966        C  0.96782338  0.49421337  0.75678487     0.29100
C967        C  0.97005743  0.49397332  0.79454071    -0.24700
C968        C  0.99031197  0.00651505  0.81038834    -0.24000
C969        C  0.51513749  0.02778325  0.78619251     0.40600
C970        C  0.51250342  0.02817864  0.74843296    -0.26500
O971        O  0.94178145  0.47920039  0.74029127    -0.58400
H972        H  0.95169471  0.48108107  0.80998304     0.16200
O973        O  0.53660165  0.04867807  0.80284072    -0.59800
H974        H  0.52782812  0.04471674  0.73331538     0.14700
H975        H  0.51492281  0.44411019  0.61201572     0.46500
H976        H  0.94575411  0.45552509  0.74294465     0.41900
H977        H  0.55734641  0.03627914  0.80487028     0.45300
H978        H  0.96403008  0.07338077  0.69714850     0.36800
C979        C  0.02212604  0.47352436  0.22651017    -0.27400
C980        C  0.50681223  0.00074436  0.20469965     0.02200
C981        C  0.48890774  0.02347927  0.22551882     0.30300
C982        C  0.48891781  0.02162379  0.26327076    -0.19200
C983        C  0.00095267  0.99951222  0.28210986    -0.28600
C984        C  0.02275232  0.47189735  0.26433158     0.44300
C985        C  0.50614918  0.00162421  0.16457281     0.05500
O986        O  0.47149057  0.04781924  0.20920996    -0.57100
H987        H  0.47504341  0.03954249  0.27857851     0.18400
O988        O  0.04390811  0.45045089  0.28026336    -0.63900
H989        H  0.03816083  0.45775819  0.21086412     0.16900
C990        C  0.51777979  0.50244007  0.14457901     0.29100
C991        C  0.51733371  0.50272331  0.10682752    -0.24700
C992        C  0.99160582  0.00343522  0.09012485    -0.24000
C993        C  0.96286093  0.00160826  0.11133847     0.40600
C994        C  0.96501990  0.00176349  0.14911827    -0.26500
O995        O  0.54721873  0.50436297  0.16226338    -0.58400
H996        H  0.54048304  0.50364765  0.09254317     0.16200
O997        O  0.93265688  0.99852141  0.09560332    -0.59800
H998        H  0.94285517  0.99977125  0.16508709     0.14700
H999        H  0.03148358  0.42983759  0.28231356     0.46500
H1000       H  0.55776458  0.48282340  0.15859466     0.41900
H1001       H  0.92361353  0.02091911  0.09497122     0.45300
H1002       H  0.48693647  0.06631921  0.20737466     0.36800
C1003       C  0.72900887  0.27298193  0.71802568    -0.27400
C1004       C  0.75167175  0.25267980  0.70042498     0.02200
C1005       C  0.77310684  0.23358666  0.72104912     0.30300
C1006       C  0.77122962  0.23455338  0.75881891    -0.19200
C1007       C  0.74812941  0.25443442  0.77669507    -0.28600
C1008       C  0.72697599  0.27392896  0.75574452     0.44300
C1009       C  0.75257130  0.25175204  0.66048921     0.05500
O1010       O  0.79691957  0.21509499  0.70450342    -0.57100
H1011       H  0.78818692  0.21978181  0.77406353     0.18400
O1012       O  0.70418486  0.29404588  0.77160600    -0.63900
H1013       H  0.71243725  0.28786931  0.70237656     0.16900
C1014       C  0.74837474  0.22233239  0.64132899     0.29100
C1015       C  0.74889848  0.22211255  0.60357913    -0.24700
C1016       C  0.75290463  0.25111445  0.58418072    -0.24000
C1017       C  0.75673819  0.28068273  0.60353760     0.40600
C1018       C  0.75646336  0.28077477  0.64134177    -0.26500
O1019       O  0.74301537  0.19373087  0.65921339    -0.58400
H1020       H  0.74555654  0.19912868  0.58950036     0.16200
O1021       O  0.76062376  0.30968006  0.58596765    -0.59800
H1022       H  0.75947098  0.30362085  0.65581656     0.14700
H1023       H  0.68396214  0.28082788  0.77323506     0.46500
H1024       H  0.71913425  0.19322425  0.66398235     0.41900
H1025       H  0.78460507  0.31236160  0.58315315     0.45300
H1026       H  0.79095529  0.19214072  0.70927167     0.36800
C1027       C  0.84634512  0.11305999  0.95414043    -0.27400
C1028       C  0.85277306  0.13951476  0.93155470     0.02200
C1029       C  0.88398409  0.14278391  0.91605479     0.30300
C1030       C  0.90816181  0.11951901  0.92264205    -0.19200
C1031       C  0.90181959  0.09237075  0.94452387    -0.28600
C1032       C  0.87062658  0.08970626  0.96097235     0.44300
C1033       C  0.82632167  0.16218577  0.92129823     0.05500
O1034       O  0.89076419  0.16814994  0.89337468    -0.57100
H1035       H  0.93177395  0.12245574  0.90972324     0.18400
O1036       O  0.86308106  0.06383443  0.98259344    -0.63900
H1037       H  0.82225286  0.11023099  0.96598740     0.16900
C1038       C  0.80202664  0.15206180  0.89681194     0.29100
C1039       C  0.78068596  0.17492563  0.88191433    -0.24700
C1040       C  0.78260986  0.20787171  0.89193244    -0.24000
C1041       C  0.80579648  0.21776646  0.91787576     0.40600
C1042       C  0.82762353  0.19495686  0.93226269    -0.26500
O1043       O  0.80049274  0.12026848  0.88535801    -0.58400
H1044       H  0.76301246  0.16704021  0.86187934     0.16200
O1045       O  0.80830752  0.24983651  0.92801174    -0.59800
H1046       H  0.84635701  0.20302334  0.95097476     0.14700
H1047       H  0.86769746  0.07142383  0.00760037     0.46500
H1048       H  0.78496561  0.10965295  0.90216937     0.41900
H1049       H  0.82409270  0.25951209  0.91078889     0.45300
H1050       H  0.88395692  0.16052279  0.86900666     0.36800
C1051       C  0.63608164  0.39180188  0.95420937    -0.27400
C1052       C  0.63256735  0.36754613  0.92770527     0.02200
C1053       C  0.60318128  0.36509297  0.90833068     0.30300
C1054       C  0.57788969  0.38727528  0.91488331    -0.19200
C1055       C  0.58140687  0.41243800  0.94064075    -0.28600
C1056       C  0.61069497  0.41405173  0.96101687     0.44300
C1057       C  0.66023995  0.34617213  0.91800973     0.05500
O1058       O  0.59922510  0.34135291  0.88238778    -0.57100
H1059       H  0.55572460  0.38511990  0.89904562     0.18400
O1060       O  0.61539546  0.43791963  0.98662895    -0.63900
H1061       H  0.65878898  0.39386848  0.96911952     0.16900
C1062       C  0.68223912  0.35553061  0.89078604     0.29100
C1063       C  0.70464057  0.33298072  0.87675189    -0.24700
C1064       C  0.70586977  0.30111795  0.89007230    -0.24000
C1065       C  0.68499987  0.29238294  0.91873996     0.40600
C1066       C  0.66216650  0.31481525  0.93237500    -0.26500
O1067       O  0.68061180  0.38605361  0.87620263    -0.58400
H1068       H  0.72059769  0.34018060  0.85479735     0.16200
O1069       O  0.68525690  0.26142522  0.93200491    -0.59800
H1070       H  0.64508715  0.30735148  0.95315561     0.14700
H1071       H  0.60780122  0.42831633  0.00967652     0.46500
H1072       H  0.69420650  0.39993457  0.89226768     0.41900
H1073       H  0.70111825  0.26235233  0.95215205     0.45300
H1074       H  0.60779550  0.35093159  0.85974479     0.36800
C1075       C  0.77294983  0.73414348  0.87467642     0.80400
N1076       N  0.77330669  0.73354748  0.83797518    -0.77900
C1077       C  0.75583681  0.75561276  0.81891648     0.82900
N1078       N  0.73788868  0.77824242  0.83700345    -0.77800
C1079       C  0.73689281  0.77879930  0.87363567     0.82900
N1080       N  0.75458018  0.75675204  0.89260787    -0.79600
Zn1081     Zn  0.95953439  0.50536265  0.98265449     1.49700
Zn1082     Zn  0.00143998  0.54434772  0.92414480     1.49400
Zn1083     Zn  0.52980802  0.49915056  0.97959730     1.49100
Zn1084     Zn  0.98915471  0.96343597  0.91805432     1.49500
O1085       O  0.99877361  0.50422553  0.95205141    -1.83900
O1086       O  0.93217211  0.54551839  0.97384417    -0.74600
O1087       O  0.53602188  0.56781996  0.93175637    -0.74400
O1088       O  0.51590777  0.49825297  0.03157561    -0.73900
O1089       O  0.96178076  0.57232081  0.93358965    -0.74600
O1090       O  0.97162267  0.50345355  0.03549939    -0.74200
O1091       O  0.55907025  0.53803373  0.97427166    -0.74800
O1092       O  0.54024259  0.93928111  0.92146465    -0.74200
O1093       O  0.00242109  0.53507812  0.87032003    -0.74900
O1094       O  0.56869825  0.96493552  0.96399206    -0.74300
O1095       O  0.98612223  0.97737027  0.86558518    -0.74800
O1096       O  0.95046535  0.93490683  0.93068829    -0.74700
O1097       O  0.92491826  0.96280646  0.97396557    -0.74500
C1098       C  0.93626229  0.56984054  0.95323917     0.77300
C1099       C  0.55882781  0.56322366  0.95453928     0.77800
C1100       C  0.99862088  0.49987399  0.05217709     0.76800
C1101       C  0.56557829  0.94160091  0.94138937     0.77100
C1102       C  0.99723067  0.50915553  0.85210742     0.78300
C1103       C  0.92734830  0.93765215  0.95375570     0.77300
C1104       C  0.73429354  0.71931975  0.02358295     0.80400
N1105       N  0.73878626  0.71502787  0.05959335    -0.77900
C1106       C  0.76392286  0.72963280  0.07724642     0.82900
N1107       N  0.78447413  0.74900147  0.05838118    -0.77800
C1108       C  0.78011770  0.75395909  0.02251500     0.82900
N1109       N  0.75491348  0.73907669  0.00497537    -0.79600
C1110       C  0.53123572  0.98112768  0.37638302     0.80400
N1111       N  0.53088634  0.98127026  0.33963340    -0.77900
C1112       C  0.49475585  0.49487235  0.32014918     0.82900
N1113       N  0.97876354  0.50789135  0.34458498    -0.77800
C1114       C  0.97909942  0.50877586  0.38128025     0.82900
N1115       N  0.50726332  0.99706213  0.39511157    -0.79600
Zn1116     Zn  0.75740479  0.71061570  0.47863406     1.49700
Zn1117     Zn  0.75721883  0.78847975  0.47597284     1.49400
Zn1118     Zn  0.79837688  0.74792464  0.41861002     1.49100
Zn1119     Zn  0.71846485  0.74618644  0.41670352     1.49500
O1120       O  0.75781394  0.74838960  0.44720245    -1.83900
O1121       O  0.76007087  0.72452844  0.53050267    -0.74600
O1122       O  0.79615736  0.81689297  0.46556618    -0.74400
O1123       O  0.82532119  0.70768645  0.42909069    -0.73900
O1124       O  0.75776965  0.77843353  0.52898939    -0.74600
O1125       O  0.79479274  0.68024785  0.46792934    -0.74200
O1126       O  0.82654011  0.78859082  0.42674813    -0.74800
O1127       O  0.73223376  0.74203282  0.36452338    -0.74200
O1128       O  0.71752622  0.81543138  0.46532820    -0.74900
O1129       O  0.78662398  0.74458691  0.36598817    -0.74300
O1130       O  0.69147184  0.78723016  0.42279752    -0.74800
O1131       O  0.68868407  0.70778899  0.42883668    -0.74700
O1132       O  0.71615448  0.68470487  0.47324009    -0.74500
C1133       C  0.75939259  0.75202437  0.54661953     0.77300
C1134       C  0.82169915  0.81407590  0.44603287     0.77800
C1135       C  0.82013794  0.68246056  0.44808675     0.76800
C1136       C  0.75990407  0.74183337  0.34852085     0.77100
C1137       C  0.69390610  0.81226536  0.44322792     0.78300
C1138       C  0.69121804  0.68580437  0.45279157     0.77300
C1139       C  0.97810369  0.98728421  0.52089533     0.80400
N1140       N  0.97683423  0.98761368  0.55760221    -0.77900
C1141       C  0.49167914  0.50789407  0.57620742     0.82900
N1142       N  0.50897566  0.53147584  0.55949697    -0.77800
C1143       C  0.51100268  0.53265757  0.52288042     0.82900
N1144       N  0.49224982  0.00621094  0.49951085    -0.79600
C1145       C  0.56637712  0.60580553  0.51180527    -0.27400
C1146       C  0.58256475  0.59844581  0.47929632     0.02200
C1147       C  0.57252037  0.57113179  0.45889792     0.30300
C1148       C  0.54793612  0.55057215  0.47238130    -0.19200
C1149       C  0.53290884  0.55708264  0.50599047    -0.28600
C1150       C  0.54174138  0.58568434  0.52506546     0.44300
C1151       C  0.61165010  0.61815125  0.46950287     0.05500
O1152       O  0.58825650  0.56297812  0.42728450    -0.57100
H1153       H  0.54178228  0.52873154  0.45727685     0.18400
O1154       O  0.52736253  0.59372883  0.55750091    -0.63900
H1155       H  0.57357619  0.62694817  0.52760151     0.16900
C1156       C  0.61304113  0.63675959  0.43775360     0.29100
C1157       C  0.63933894  0.65818760  0.43206804    -0.24700
C1158       C  0.66458749  0.66140637  0.45778048    -0.24000
C1159       C  0.66348261  0.64169925  0.48894256     0.40600
C1160       C  0.63724241  0.62058776  0.49452184    -0.26500
O1161       O  0.58837775  0.63501399  0.41273562    -0.58400
H1162       H  0.63962557  0.67273964  0.40779341     0.16200
O1163       O  0.68700141  0.64397649  0.51524575    -0.59800
H1164       H  0.63648070  0.60648242  0.51914179     0.14700
H1165       H  0.50739833  0.60612878  0.55109035     0.46500
H1166       H  0.57141010  0.65045821  0.42154042     0.41900
H1167       H  0.70273362  0.62620835  0.50969658     0.45300
H1168       H  0.57235811  0.56776255  0.40780878     0.36800
C1169       C  0.86143314  0.89697135  0.46081614    -0.27400
C1170       C  0.89472685  0.88950871  0.45658776     0.02200
C1171       C  0.90366970  0.85782467  0.44539209     0.30300
C1172       C  0.87961809  0.83382827  0.44033136    -0.19200
C1173       C  0.84638183  0.84074871  0.44678892    -0.28600
C1174       C  0.83740839  0.87296527  0.45627509     0.44300
C1175       C  0.91966142  0.91363439  0.46862416     0.05500
O1176       O  0.93597305  0.84975457  0.44062618    -0.57100
H1177       H  0.88716676  0.80938396  0.43288862     0.18400
O1178       O  0.80517525  0.88130923  0.46123742    -0.63900
H1179       H  0.85407179  0.92115179  0.46951174     0.15100
C1180       C  0.92087844  0.94540570  0.45453644     0.29100
C1181       C  0.94149287  0.96890027  0.47039067    -0.24700
C1182       C  0.96051386  0.96132331  0.50075992    -0.24000
C1183       C  0.96042078  0.92911279  0.51359756     0.40600
C1184       C  0.94020181  0.90566654  0.49757719    -0.26500
O1185       O  0.90194395  0.95364510  0.42541960    -0.58400
H1186       H  0.94127678  0.99347316  0.46016654     0.16200
O1187       O  0.97938018  0.92043535  0.54251485    -0.59800
H1188       H  0.93950463  0.88144465  0.50889194     0.14700
H1189       H  0.80186640  0.88186363  0.48782119     0.46500
H1190       H  0.88431991  0.96776526  0.43534773     0.41900
H1191       H  0.49339310  0.91084627  0.53196106     0.45300
H1192       H  0.94127629  0.85632339  0.41555001     0.36800
C1193       C  0.61642358  0.85948385  0.42169154    -0.27400
C1194       C  0.62582466  0.89124669  0.43094093     0.02200
C1195       C  0.65676698  0.89676407  0.44619349     0.30300
C1196       C  0.67820418  0.87060928  0.45137483    -0.19200
C1197       C  0.66949062  0.83884041  0.44057207    -0.28600
C1198       C  0.63804116  0.83339118  0.42608217     0.44300
C1199       C  0.60406390  0.91845552  0.42131079     0.05500
O1200       O  0.66619146  0.92760672  0.45606199    -0.57100
H1201       H  0.70215199  0.87543790  0.46270494     0.18400
O1202       O  0.62800550  0.80266701  0.41652361    -0.63900
H1203       H  0.59257782  0.85507217  0.40987392     0.16900
C1204       C  0.61119441  0.93753305  0.39097514     0.29100
C1205       C  0.58790794  0.95942562  0.37807417    -0.24700
C1206       C  0.55720793  0.96260990  0.39497049    -0.24000
C1207       C  0.55089592  0.94495628  0.42675721     0.40600
C1208       C  0.57419323  0.92271871  0.43944837    -0.26500
O1209       O  0.64014580  0.93362182  0.37256866    -0.58400
H1210       H  0.59338139  0.97296676  0.35379187     0.16200
O1211       O  0.52104314  0.94701535  0.44362783    -0.59800
H1212       H  0.56842310  0.90784617  0.46265057     0.14700
H1213       H  0.63097175  0.80129354  0.38992088     0.46500
H1214       H  0.63590228  0.91622771  0.35441672     0.41900
H1215       H  0.02909364  0.96343007  0.46712147     0.45300
H1216       H  0.68012662  0.93534134  0.43591225     0.36800
C1217       C  0.85681189  0.59721819  0.45170008    -0.27400
C1218       C  0.88819728  0.60263349  0.43767477     0.02200
C1219       C  0.89753768  0.63444416  0.42847910     0.30300
C1220       C  0.87539481  0.66022330  0.43268301    -0.19200
C1221       C  0.84374915  0.65495508  0.44636253    -0.28600
C1222       C  0.83473832  0.62305863  0.45643392     0.44300
C1223       C  0.90971530  0.57473791  0.42856254     0.05500
O1224       O  0.92747412  0.64017629  0.41295244    -0.57100
H1225       H  0.88290517  0.68435456  0.42456652     0.18400
O1226       O  0.80382131  0.61643951  0.46883141    -0.63900
H1227       H  0.84916705  0.57272657  0.45825091     0.16900
C1228       C  0.94113411  0.57161889  0.44370218     0.29100
C1229       C  0.96312913  0.54856577  0.42955121    -0.24700
C1230       C  0.95406411  0.52836364  0.40046269    -0.24000
C1231       C  0.92177816  0.52994714  0.38721175     0.40600
C1232       C  0.89982515  0.55285703  0.40146507    -0.26500
O1233       O  0.95098212  0.59194962  0.47118438    -0.58400
H1234       H  0.98779386  0.54769126  0.44001388     0.16200
O1235       O  0.91160275  0.50945371  0.35998173    -0.59800
H1236       H  0.87554769  0.55471768  0.38992866     0.14700
H1237       H  0.80568070  0.61648161  0.49556968     0.46500
H1238       H  0.94732581  0.57948433  0.49367176     0.41900
H1239       H  0.40453071  0.52053004  0.34260310     0.45300
H1240       H  0.94107330  0.64965126  0.43255477     0.36800
C1241       C  0.73651353  0.74015847  0.24917118    -0.27400
C1242       C  0.76526656  0.72798346  0.23326422     0.02200
C1243       C  0.79217510  0.72046847  0.25529441     0.30300
C1244       C  0.79016051  0.72540288  0.29268879    -0.19200
C1245       C  0.76132854  0.73750830  0.30878251    -0.28600
C1246       C  0.73428492  0.74475200  0.28660346     0.44300
C1247       C  0.76731807  0.72506573  0.19348046     0.05500
O1248       O  0.82053119  0.70830847  0.24051791    -0.57100
H1249       H  0.81115216  0.71934176  0.30916933     0.18400
O1250       O  0.70609560  0.75769480  0.30095546    -0.63900
H1251       H  0.71588136  0.74675259  0.23239332     0.16900
C1252       C  0.74433289  0.70664589  0.17392501     0.29100
C1253       C  0.74446658  0.70724483  0.13611489    -0.24700
C1254       C  0.76710821  0.72646785  0.11711899    -0.24000
C1255       C  0.79111355  0.74376420  0.13699919     0.40600
C1256       C  0.79106728  0.74282706  0.17479016    -0.26500
O1257       O  0.72185921  0.68774969  0.19161907    -0.58400
H1258       H  0.72612835  0.69320872  0.12178247     0.16200
O1259       O  0.81447550  0.76210872  0.12003922    -0.59800
H1260       H  0.80892527  0.75709845  0.18961352     0.14700
H1261       H  0.69072961  0.73912789  0.30282665     0.46500
H1262       H  0.70083056  0.69971251  0.18991177     0.41900
H1263       H  0.80579972  0.78466815  0.12041351     0.45300
H1264       H  0.81772208  0.68434242  0.24035180     0.36800
C1265       C  0.80803772  0.82879179  0.97255068    -0.27400
C1266       C  0.84185844  0.82795861  0.97887927     0.02200
C1267       C  0.85552776  0.80123579  0.99703468     0.30300
C1268       C  0.83520197  0.77651337  0.00992998    -0.19200
C1269       C  0.80129549  0.77765420  0.00422012    -0.28600
C1270       C  0.78781395  0.80375167  0.98486572     0.44300
C1271       C  0.86217426  0.85650275  0.96976531     0.05500
O1272       O  0.88835022  0.80034077  0.00464407    -0.57100
H1273       H  0.84584633  0.75677389  0.02520380     0.18400
O1274       O  0.75468620  0.80625070  0.98020772    -0.63900
H1275       H  0.79720419  0.84939450  0.95892521     0.16900
C1276       C  0.88846996  0.85401182  0.94533127     0.29100
C1277       C  0.90889889  0.88082055  0.93960580    -0.24700
C1278       C  0.90355490  0.91053144  0.95802403    -0.24000
C1279       C  0.87638093  0.91311995  0.98168309     0.40600
C1280       C  0.85592487  0.88631827  0.98712095    -0.26500
O1281       O  0.89469215  0.82533287  0.92732577    -0.58400
H1282       H  0.92939881  0.87804189  0.92121159     0.16200
O1283       O  0.86950516  0.94162120  0.99977292    -0.59800
H1284       H  0.83560555  0.88854628  0.00587723     0.14700
H1285       H  0.75032088  0.79410728  0.95748548     0.46500
H1286       H  0.88030231  0.82570275  0.90577578     0.41900
H1287       H  0.87920276  0.93902194  0.02414764     0.45300
H1288       H  0.89774780  0.78422971  0.98738135     0.36800
C1289       C  0.68578024  0.66533536  0.95980966    -0.27400
C1290       C  0.65635682  0.66246026  0.97906139     0.02200
C1291       C  0.65141116  0.68116032  0.01058338     0.30300
C1292       C  0.67659249  0.70079984  0.02389749    -0.19200
C1293       C  0.70670355  0.70262950  0.00568110    -0.28600
C1294       C  0.71079970  0.68561845  0.97274846     0.44300
C1295       C  0.63284475  0.63666971  0.96949472     0.05500
O1296       O  0.62281519  0.67868464  0.02983800    -0.57100
H1297       H  0.67294846  0.71387979  0.04917367     0.18400
O1298       O  0.73998546  0.68662695  0.95457039    -0.63900
H1299       H  0.68986069  0.65078327  0.93562858     0.16900
C1300       C  0.60566552  0.64277948  0.94743038     0.29100
C1301       C  0.58209359  0.61846930  0.94204939    -0.24700
C1302       C  0.58518400  0.58788795  0.95870050    -0.24000
C1303       C  0.61306650  0.58183650  0.98023327     0.40600
C1304       C  0.63659024  0.60608583  0.98525326    -0.26500
O1305       O  0.60134977  0.67274746  0.93213232    -0.58400
H1306       H  0.56097658  0.62389271  0.92550038     0.16200
O1307       O  0.61773944  0.55233839  0.99652264    -0.59800
H1308       H  0.65751756  0.60127792  0.00236351     0.14700
H1309       H  0.73656711  0.70303321  0.93550177     0.46500
H1310       H  0.61343455  0.67166879  0.90886291     0.41900
H1311       H  0.60974074  0.55535379  0.02168286     0.45300
H1312       H  0.60783308  0.69482729  0.01889357     0.36800
C1313       C  0.49169021  0.97829304  0.67017109    -0.27400
C1314       C  0.99019376  0.51052432  0.69603055     0.02200
C1315       C  0.99246474  0.53952908  0.67613666     0.30300
C1316       C  0.99211451  0.53843867  0.63830584    -0.19200
C1317       C  0.49037715  0.50711142  0.61613409    -0.28600
C1318       C  0.49139958  0.97806244  0.63232234     0.44300
C1319       C  0.99140881  0.51090705  0.73619874     0.05500
O1320       O  0.99475987  0.56912817  0.69337935    -0.57100
H1321       H  0.99398852  0.56102550  0.62355392     0.18400
O1322       O  0.49406786  0.94886684  0.61427977    -0.63900
H1323       H  0.49458293  0.95542750  0.68413799     0.16900
C1324       C  0.96674282  0.98937905  0.75279193     0.29100
C1325       C  0.96786777  0.98774551  0.79062208    -0.24700
C1326       C  0.99532686  0.51058216  0.81239255    -0.24000
C1327       C  0.51613298  0.52253606  0.78927408     0.40600
C1328       C  0.51512167  0.52303435  0.75145101    -0.26500
O1329       O  0.94318573  0.97214287  0.73448470    -0.58400
H1330       H  0.95067423  0.97220508  0.80459431     0.16200
O1331       O  0.54088475  0.53851606  0.80700519    -0.59800
H1332       H  0.53393538  0.53604447  0.73682662     0.14700
H1333       H  0.51782785  0.94585271  0.60985285     0.46500
H1334       H  0.94968933  0.94896350  0.73646775     0.41900
H1335       H  0.55862649  0.52219094  0.80944515     0.45300
H1336       H  0.97186978  0.57559231  0.69881717     0.36800
C1337       C  0.01469038  0.97752058  0.22265446    -0.27400
C1338       C  0.48843398  0.49912279  0.20403719     0.02200
C1339       C  0.47064150  0.52117100  0.22583451     0.30300
C1340       C  0.47233261  0.51907845  0.26354037    -0.19200
C1341       C  0.00186779  0.49207824  0.28533350    -0.28600
C1342       C  0.01657017  0.97569467  0.26029179     0.44300
C1343       C  0.48822215  0.50127125  0.16410798     0.05500
O1344       O  0.45208015  0.54525366  0.21060230    -0.57100
H1345       H  0.45882575  0.53664273  0.27973405     0.18400
O1346       O  0.03339204  0.95026894  0.27528331    -0.63900
H1347       H  0.02648590  0.95889253  0.20627076     0.16900
C1348       C  0.53521109  0.00271012  0.14411360     0.29100
C1349       C  0.53378837  0.00361961  0.10625002    -0.24700
C1350       C  0.99875767  0.49834364  0.09232701    -0.24000
C1351       C  0.97019483  0.49093874  0.11222301     0.40600
C1352       C  0.97125354  0.48972990  0.15005189    -0.26500
O1353       O  0.56506407  0.00420492  0.16094845    -0.58400
H1354       H  0.55652138  0.00475797  0.09119645     0.16200
O1355       O  0.94136346  0.48373461  0.09503125    -0.59800
H1356       H  0.94922523  0.48361743  0.16486116     0.14700
H1357       H  0.01679589  0.93306344  0.27917174     0.46500
H1358       H  0.57476810  0.98221564  0.15785034     0.41900
H1359       H  0.92848260  0.50420638  0.09580247     0.45300
H1360       H  0.46733747  0.56367828  0.20694699     0.36800
C1361       C  0.73400839  0.77036536  0.72053752    -0.27400
C1362       C  0.75930341  0.75370353  0.70270882     0.02200
C1363       C  0.78345145  0.73776216  0.72294787     0.30300
C1364       C  0.78203028  0.73859228  0.76073617    -0.19200
C1365       C  0.75656942  0.75509870  0.77886451    -0.28600
C1366       C  0.73230417  0.77097582  0.75826170     0.44300
C1367       C  0.76007723  0.75312121  0.66288839     0.05500
O1368       O  0.80921841  0.72250546  0.70597635    -0.57100
H1369       H  0.80117078  0.72655266  0.77581705     0.18400
O1370       O  0.70663837  0.78697068  0.77451947    -0.63900
H1371       H  0.71522172  0.78258344  0.70506745     0.16900
C1372       C  0.75695096  0.72368786  0.64361954     0.29100
C1373       C  0.75721018  0.72371474  0.60587564    -0.24700
C1374       C  0.76013328  0.75298003  0.58666983    -0.24000
C1375       C  0.76321182  0.78253025  0.60623571     0.40600
C1376       C  0.76295512  0.78238343  0.64403835    -0.26500
O1377       O  0.75301842  0.69482963  0.66145458    -0.58400
H1378       H  0.75457073  0.70069712  0.59167842     0.16200
O1379       O  0.76621408  0.81173053  0.58887747    -0.59800
H1380       H  0.76518270  0.80520074  0.65874904     0.14700
H1381       H  0.68928020  0.77032377  0.77720468     0.46500
H1382       H  0.72905421  0.69242012  0.66471408     0.41900
H1383       H  0.79010912  0.81532659  0.58648027     0.45300
H1384       H  0.80504240  0.69887779  0.70859536     0.36800
C1385       C  0.85399140  0.61375948  0.95596831    -0.27400
C1386       C  0.86168232  0.64251368  0.93766013     0.02200
C1387       C  0.89425024  0.64823063  0.92715941     0.30300
C1388       C  0.91837048  0.62497004  0.93386759    -0.19200
C1389       C  0.91068376  0.59548303  0.95087437    -0.28600
C1390       C  0.87820336  0.59038731  0.96284018     0.44300
C1391       C  0.83551114  0.66509967  0.92619279     0.05500
O1392       O  0.90251719  0.67589980  0.90879506    -0.57100
H1393       H  0.94307252  0.62971158  0.92464692     0.18400
O1394       O  0.86935254  0.56194103  0.97929116    -0.63900
H1395       H  0.82896987  0.60906160  0.96412031     0.16900
C1396       C  0.81151094  0.65464791  0.90143795     0.29100
C1397       C  0.79069931  0.67737253  0.88543982    -0.24700
C1398       C  0.79293498  0.71049311  0.89445951    -0.24000
C1399       C  0.81592430  0.72081525  0.92031589     0.40600
C1400       C  0.83697923  0.69813864  0.93614385    -0.26500
O1401       O  0.80987205  0.62266345  0.89068090    -0.58400
H1402       H  0.77314732  0.66920371  0.86541081     0.16200
O1403       O  0.81940071  0.75322366  0.92845229    -0.59800
H1404       H  0.85547167  0.70653805  0.95497827     0.14700
H1405       H  0.87054476  0.56666545  0.00560422     0.46500
H1406       H  0.79185050  0.61318624  0.90515630     0.41900
H1407       H  0.83632682  0.76129752  0.91151134     0.45300
H1408       H  0.89836962  0.67073546  0.88295646     0.36800
C1409       C  0.64698078  0.89661263  0.95015344    -0.27400
C1410       C  0.64221692  0.87056852  0.92609865     0.02200
C1411       C  0.61217710  0.86730980  0.90811533     0.30300
C1412       C  0.58733699  0.89016156  0.91398317    -0.19200
C1413       C  0.59195502  0.91678591  0.93762692    -0.28600
C1414       C  0.62207973  0.91951947  0.95627830     0.44300
C1415       C  0.66941815  0.84827782  0.91727536     0.05500
O1416       O  0.60717410  0.84222082  0.88404095    -0.57100
H1417       H  0.56457396  0.88724120  0.89937460     0.18400
O1418       O  0.62799536  0.94498735  0.97956461    -0.63900
H1419       H  0.67025379  0.89942863  0.96380340     0.16900
C1420       C  0.69381380  0.85796041  0.89283342     0.29100
C1421       C  0.71662718  0.83527365  0.88004205    -0.24700
C1422       C  0.71583756  0.80294597  0.89186625    -0.24000
C1423       C  0.69237523  0.79357686  0.91769041     0.40600
C1424       C  0.66911834  0.81623623  0.93003982    -0.26500
O1425       O  0.69406272  0.88894204  0.87935361    -0.58400
H1426       H  0.73440986  0.84269363  0.85996158     0.16200
O1427       O  0.69030302  0.76181651  0.92859273    -0.59800
H1428       H  0.65011787  0.80853141  0.94854985     0.14700
H1429       H  0.62227580  0.93671967  0.00388537     0.46500
H1430       H  0.70839146  0.90152884  0.89593373     0.41900
H1431       H  0.69901369  0.76165361  0.95359382     0.45300
H1432       H  0.61488433  0.85049538  0.86039674     0.36800
loop_ 
_geom_bond_atom_site_label_1 
_geom_bond_atom_site_label_2 
_geom_bond_distance 
_geom_bond_site_symmetry_2 
_ccdc_geom_bond_type 
C1            N2   1.356       .  A
C1            N6   1.362       .  A
C1          C324   1.473       .  S
N2            C3   1.355       .  A
C3            N4   1.355       .  A
C3          C291   1.484       .  S
N4            C5   1.357       .  A
C5            N6   1.362       .  A
C5          C348   1.471       .  S
Zn7          O11   1.956       .  S
Zn7          O12   2.018       .  S
Zn7          O16   2.019   1_556  S
Zn7         O381   2.013   1_545  S
Zn8          O11   1.960       .  S
Zn8          O15   2.016       .  S
Zn8          O19   2.022       .  S
Zn8         O729   2.021       .  S
Zn9         O727   1.950   1_465  S
Zn9          O14   2.001   1_556  S
Zn9          O17   2.007   1_565  S
Zn9         O378   2.006       .  S
Zn10        O369   1.955       .  S
Zn10         O21   2.016       .  S
Zn10         O22   2.025       .  S
Zn10        O734   2.019       .  S
O11        Zn725   1.959       .  S
O11        Zn368   1.961   1_545  S
O12          C24   1.274       .  A
O13        Zn724   2.017   1_455  S
O13          C25   1.273       .  A
O14         C742   1.273   1_465  A
O15          C24   1.274       .  A
O16          C26   1.274       .  A
O17          C25   1.272       .  A
O18        Zn726   2.011   1_455  S
O18          C27   1.274       .  A
O19          C28   1.274       .  A
O20        Zn367   2.029       .  S
O20          C27   1.275       .  A
O21         C386   1.274       .  A
O22          C29   1.274       .  A
O23        Zn365   2.018       .  S
O23          C29   1.274       .  A
C24         C315   1.486       .  S
C25         C228   1.483       .  S
C26         C276   1.490       .  S
C26         O730   1.275       .  A
C27         C339   1.490       .  S
C28         C252   1.482       .  S
C28         O379   1.275   1_545  A
C29         C204   1.490       .  S
C30          N31   1.356       .  A
C30          N35   1.363       .  A
C30         C219   1.477       .  S
N31          C32   1.354       .  A
C32          N33   1.355       .  A
C32         C180   1.482       .  S
N33          C34   1.357       .  A
C34          N35   1.363       .  A
C34         C195   1.474   1_554  S
C36          N37   1.360       .  A
C36          N41   1.363       .  A
C36         C132   1.484       .  S
N37         C396   1.355       .  A
C38         N395   1.352       .  A
C38         N755   1.353   1_465  A
C38         C983   1.480       .  S
N39          C40   1.357       .  A
N39         C754   1.355   1_545  A
C40        N1115   1.361   1_545  A
C40         C156   1.474       .  S
N41        C1114   1.362   1_455  A
Zn42         O46   1.956       .  S
Zn42         O47   2.004       .  S
Zn42         O51   2.017       .  S
Zn42         O58   2.026       .  S
Zn43         O46   1.960       .  S
Zn43         O48   2.010       .  S
Zn43         O50   2.017       .  S
Zn43         O54   2.020       .  S
Zn44         O46   1.967       .  S
Zn44         O49   2.028       .  S
Zn44         O52   2.041       .  S
Zn44         O55   2.016       .  S
Zn45         O46   1.956       .  S
Zn45         O53   2.010       .  S
Zn45         O56   2.005       .  S
Zn45         O57   2.027       .  S
O47          C59   1.273       .  A
O48          C60   1.273       .  A
O49          C61   1.276       .  A
O50          C59   1.274       .  A
O51          C61   1.274       .  A
O52          C60   1.275       .  A
O53          C62   1.274       .  A
O54          C63   1.273       .  A
O55          C62   1.275       .  A
O56          C63   1.272       .  A
O57          C64   1.274       .  A
O58          C64   1.273       .  A
C59         C300   1.482       .  S
C60          C99   1.488       .  S
C61         C147   1.491       .  S
C62         C171   1.486       .  S
C63         C123   1.479       .  S
C64          C84   1.491       .  S
C65          N66   1.359       .  A
C65         N786   1.363       .  A
C65         C108   1.478       .  S
N66        C1141   1.355       .  A
C67          N68   1.357   1_655  A
C67        N1140   1.356   1_545  A
C67         C243   1.483       .  S
N68          C69   1.360       .  A
C69         N428   1.364   1_455  A
C69          C75   1.483       .  S
N70         C781   1.363       .  A
N70         C427   1.362   1_655  A
C71          C72   1.404       .  A
C71          C76   1.401       .  A
C71          H81   1.083       .  S
C72          C77   1.489       .  S
C72          C73   1.410       .  A
C73          C74   1.405       .  A
C73          O78   1.371       .  S
C74          C75   1.405       .  A
C74          H79   1.084       .  S
C75          C76   1.410       .  A
C76          O80   1.372       .  S
C77          C82   1.408       .  A
C77          C86   1.404       .  A
O78          H94   0.992       .  S
O80          H91   0.991   1_455  S
C82          C83   1.404       .  A
C82          O87   1.372       .  S
C83          C84   1.408       .  A
C83          H88   1.083       .  S
C84          C85   1.413       .  A
C85          C86   1.402       .  A
C85          O89   1.371       .  S
C86          H90   1.084       .  S
O87          H92   0.992       .  S
O89          H93   0.992       .  S
C95          C96   1.400       .  A
C95         C100   1.398       .  A
C95         H105   1.084       .  S
C96         C101   1.480       .  S
C96          C97   1.408       .  A
C97          C98   1.405       .  A
C97         O102   1.371       .  S
C98          C99   1.408       .  A
C98         H103   1.083       .  S
C99         C100   1.414       .  A
C100        O104   1.372       .  S
C101        C106   1.409       .  A
C101        C110   1.401       .  A
O102        H118   0.992       .  S
O104        H115   0.992       .  S
C106        C107   1.405       .  A
C106        O111   1.372       .  S
C107        C108   1.403       .  A
C107        H112   1.081       .  S
C108        C109   1.409       .  A
C109        C110   1.397       .  A
C109        O113   1.371       .  S
C110        H114   1.084       .  S
O111        H116   0.992       .  S
O113        H833   0.992       .  S
H117        O829   0.992       .  S
C119        C120   1.400       .  A
C119        C124   1.398       .  A
C119        H129   1.084       .  S
C120        C125   1.477       .  S
C120        C121   1.407       .  A
C121        C122   1.403       .  A
C121        O126   1.372       .  S
C122        C123   1.406       .  A
C122        H127   1.084       .  S
C123        C124   1.411       .  A
C124        O128   1.372       .  S
C125        C130   1.405       .  A
C125        C134   1.402       .  A
O126        H142   0.992       .  S
O128        H139   0.992       .  S
C130        C131   1.396       .  A
C130        O135   1.372       .  S
C131        C132   1.406       .  A
C131        H136   1.084       .  S
C132        C133   1.412       .  A
C133        C134   1.405       .  A
C133        O137   1.371       .  S
C134        H138   1.084       .  S
O135        H140   0.992       .  S
O137        H857   0.991       .  S
H141        O853   0.991       .  S
C143        C144   1.399       .  A
C143        C148   1.402       .  A
C143        H153   1.084       .  S
C144        C149   1.475       .  S
C144        C145   1.405       .  A
C145        C146   1.399       .  A
C145        O150   1.372       .  S
C146        C147   1.408       .  A
C146        H151   1.083       .  S
C147        C148   1.417       .  A
C148        O152   1.371       .  S
C149        C154   1.407       .  A
C149        C158   1.400       .  A
O150        H166   0.992       .  S
O152        H163   0.992       .  S
C154        C155   1.401       .  A
C154        O159   1.371       .  S
C155        C156   1.403       .  A
C155        H160   1.082       .  S
C156        C157   1.409       .  A
C157        C158   1.399       .  A
C157        O161   1.372       .  S
C158        H162   1.084       .  S
O159        H164   0.992       .  S
O161        H881   0.992       .  S
H165        O877   0.992       .  S
C167        C168   1.402       .  A
C167        C172   1.398       .  A
C167        H177   1.083       .  S
C168        C173   1.480       .  S
C168        C169   1.407       .  A
C169        C170   1.398       .  A
C169        O174   1.372       .  S
C170        C171   1.407       .  A
C170        H175   1.083       .  S
C171        C172   1.415       .  A
C172        O176   1.372       .  S
C173        C178   1.407       .  A
C173        C182   1.402       .  A
O174        H190   0.992       .  S
O176        H187   0.992       .  S
C178        C179   1.398       .  A
C178        O183   1.372       .  S
C179        C180   1.406       .  A
C179        H184   1.083       .  S
C180        C181   1.412       .  A
C181        C182   1.398       .  A
C181        O185   1.371       .  S
C182        H186   1.084       .  S
O183        H188   0.992       .  S
O185        H189   0.992       .  S
C191        C192   1.406       .  A
C191        C196   1.403       .  A
C191        H201   1.084       .  S
C192        C197   1.484       .  S
C192        C193   1.409       .  A
C193        C194   1.399   1_556  A
C193        O198   1.372   1_556  S
C194        C195   1.402   1_554  A
C194        H199   1.084       .  S
C195        C196   1.407       .  A
C196        O200   1.370       .  S
C197        C202   1.407       .  A
C197        C206   1.402       .  A
O198        H214   0.992   1_554  S
O200        H211   0.989       .  S
C202        C203   1.402       .  A
C202        O207   1.371       .  S
C203        C204   1.408       .  A
C203        H208   1.083       .  S
C204        C205   1.414       .  A
C205        C206   1.401       .  A
C205        O209   1.372       .  S
C206        H210   1.084       .  S
O207        H212   0.992       .  S
O209        H213   0.992   1_556  S
C215        C216   1.403       .  A
C215        C220   1.403       .  A
C215        H225   1.084       .  S
C216        C221   1.475       .  S
C216        C217   1.405   1_556  A
C217        C218   1.395       .  A
C217        O222   1.372       .  S
C218        C219   1.404       .  A
C218        H223   1.084       .  S
C219        C220   1.408   1_554  A
C220        O224   1.368       .  S
C221        C226   1.405       .  A
C221        C230   1.400       .  A
O222        H238   0.992       .  S
O224        H235   0.991       .  S
C226        C227   1.399       .  A
C226        O231   1.371       .  S
C227        C228   1.406       .  A
C227        H232   1.083       .  S
C228        C229   1.414       .  A
C229        C230   1.400       .  A
C229        O233   1.372       .  S
C230        H234   1.084       .  S
O231        H236   0.992       .  S
O233        H237   0.992   1_556  S
C239        C244   1.399       .  A
C239       C1314   1.405       .  A
C239        H249   1.083       .  S
C240        C245   1.492       .  S
C240        C241   1.413       .  A
C240       C1313   1.405   1_545  A
C241        C242   1.403       .  A
C241        O246   1.371       .  S
C242        C959   1.403       .  A
C242        H247   1.084       .  S
C243        C958   1.405       .  A
C243        C602   1.411   1_545  A
C244        C601   1.410       .  A
C244        O248   1.371       .  S
C245        C608   1.412   1_545  A
C245        C970   1.406       .  A
O246        H262   0.992       .  S
O248        H259   0.992   1_655  S
C250        C251   1.399       .  A
C250        C603   1.408       .  A
C250        O255   1.372       .  S
C251        C610   1.402       .  A
C251        H256   1.084       .  S
C252        C609   1.404   1_545  A
C252        C969   1.410       .  A
C253        C254   1.401       .  A
C253        C968   1.410   1_455  A
C253        O257   1.372       .  S
C254        C961   1.405   1_455  A
C254        H258   1.083       .  S
O255        H260   0.992       .  S
O257        H261   0.992       .  S
C263        C268   1.395       .  A
C263       C1338   1.401       .  A
C263        H273   1.083       .  S
C264        C269   1.475       .  S
C264        C265   1.405       .  A
C264       C1337   1.401   1_645  A
C265        C266   1.398       .  A
C265        O270   1.372       .  S
C266        C983   1.406   1_645  A
C266        H271   1.083       .  S
C267        C754   1.486       .  S
C267        C982   1.406   1_565  A
C267        C626   1.414       .  A
C268        C625   1.413       .  A
C268        O272   1.371       .  S
C269        C632   1.404   1_655  A
C269        C994   1.402       .  A
O270        H286   0.992       .  S
O272        H283   0.992       .  S
C274        C275   1.401       .  A
C274        C627   1.407       .  A
C274        O279   1.372       .  S
C275       C1350   1.407   1_455  A
C275        H280   1.083       .  S
C276        C277   1.415       .  A
C276       C1349   1.408       .  A
C277        C278   1.400       .  A
C277        O281   1.371       .  S
C278        C985   1.402       .  A
C278        H282   1.084   1_545  S
O279        H284   0.992       .  S
O281        H285   0.992       .  S
C287        C288   1.400       .  A
C287        C292   1.399       .  A
C287        H297   1.084       .  S
C288        C293   1.472       .  S
C288        C289   1.403       .  A
C289        C290   1.396       .  A
C289        O294   1.372       .  S
C290        C291   1.408       .  A
C290        H295   1.083       .  S
C291        C292   1.415       .  A
C292        O296   1.371       .  S
C293        C298   1.403       .  A
C293        C302   1.400       .  A
O294        H310   0.992       .  S
O296        H307   0.992       .  S
C298        C299   1.396       .  A
C298        O303   1.372       .  S
C299        C300   1.408       .  A
C299        H304   1.083       .  S
C300        C301   1.413       .  A
C301        C302   1.399       .  A
C301        O305   1.371       .  S
C302        H306   1.084       .  S
O303        H308   0.992       .  S
O305        H309   0.992       .  S
C311        C312   1.402       .  A
C311        C316   1.402       .  A
C311        H321   1.084       .  S
C312        C317   1.480       .  S
C312        C313   1.406       .  A
C313        C314   1.398       .  A
C313        O318   1.372       .  S
C314        C315   1.407       .  A
C314        H319   1.083       .  S
C315        C316   1.414       .  A
C316        O320   1.371       .  S
C317        C322   1.407       .  A
C317        C326   1.405       .  A
O318        H334   0.992       .  S
O320        H331   0.992   1_556  S
C322        C323   1.398       .  A
C322        O327   1.372       .  S
C323        C324   1.403       .  A
C323        H328   1.084       .  S
C324        C325   1.408       .  A
C325        C326   1.402       .  A
C325        O329   1.371       .  S
C326        H330   1.084       .  S
O327        H332   0.992       .  S
O329        H333   0.992       .  S
C335        C336   1.400       .  A
C335        C340   1.403       .  A
C335        H345   1.084       .  S
C336        C341   1.476       .  S
C336        C337   1.404       .  A
C337        C338   1.398       .  A
C337        O342   1.372       .  S
C338        C339   1.409       .  A
C338        H343   1.083       .  S
C339        C340   1.416       .  A
C340        O344   1.371       .  S
C341        C346   1.405       .  A
C341        C350   1.403       .  A
O342        H358   0.992       .  S
O344        H355   0.992   1_556  S
C346        C347   1.397       .  A
C346        O351   1.371       .  S
C347        C348   1.402       .  A
C347        H352   1.084       .  S
C348        C349   1.407       .  A
C349        C350   1.403       .  A
C349        O353   1.370       .  S
C350        H354   1.083       .  S
O351        H356   0.992       .  S
O353        H357   0.990       .  S
C359        N360   1.355       .  A
C359        N364   1.362       .  A
C359        C682   1.470       .  S
N360        C361   1.354       .  A
C361        N362   1.355       .  A
C361        C649   1.478       .  S
N362        C363   1.357       .  A
C363        N364   1.362       .  A
C363        C706   1.476       .  S
Zn365       O369   1.958       .  S
Zn365       O370   2.017       .  S
Zn365       O374   2.009   1_556  S
Zn366       O369   1.957       .  S
Zn366      O1087   2.019       .  S
Zn366       O373   2.013       .  S
Zn366       O377   2.015       .  S
Zn367      O1085   1.960   1_455  S
Zn367       O372   2.024   1_556  S
Zn367       O375   2.024       .  S
Zn368      O1092   2.020       .  S
Zn368       O379   2.029       .  S
Zn368       O380   2.026       .  S
O369      Zn1083   1.951       .  S
O370        C382   1.273       .  A
O371      Zn1082   2.014       .  S
O371        C383   1.274       .  A
O372       C1100   1.275   1_455  A
O373        C382   1.274       .  A
O374        C384   1.272       .  A
O375        C383   1.275       .  A
O376      Zn1084   2.036   1_455  S
O376        C385   1.276       .  A
O377        C386   1.274       .  A
O378        C385   1.272       .  A
O380        C387   1.275       .  A
O381        C387   1.273       .  A
C382        C673   1.486       .  S
C383        C586   1.487       .  S
C384        C634   1.483       .  S
C384       O1088   1.274       .  A
C385        C697   1.490       .  S
C386        C610   1.472       .  S
C387        C562   1.489       .  S
C388        N389   1.354       .  A
C388        N393   1.363       .  A
C388        C577   1.476       .  S
N389        C390   1.354       .  A
C390        N391   1.355       .  A
C390        C538   1.484       .  S
N391        C392   1.357       .  A
C392        N393   1.364       .  A
C392        C553   1.476       .  S
C394        N395   1.357       .  A
C394        N399   1.362       .  A
C394        C490   1.479       .  S
C396       N1113   1.355   1_455  A
C396       C1341   1.489       .  S
N397       C1112   1.353       .  A
N397        C398   1.357       .  A
C398        N757   1.363       .  A
C398        C514   1.470       .  S
N399        C756   1.361   1_465  A
Zn400       O404   1.957       .  S
Zn400       O405   2.013       .  S
Zn400       O409   2.010       .  S
Zn400       O416   2.024       .  S
Zn401       O404   1.955       .  S
Zn401       O406   2.025       .  S
Zn401       O408   2.010       .  S
Zn401       O412   2.002       .  S
Zn402       O404   1.956       .  S
Zn402       O407   2.007       .  S
Zn402       O410   2.031       .  S
Zn402       O413   2.005       .  S
Zn403       O404   1.954       .  S
Zn403       O411   2.007       .  S
Zn403       O414   2.001       .  S
Zn403       O415   2.021       .  S
O405        C417   1.275       .  A
O406        C418   1.274       .  A
O407        C419   1.274       .  A
O408        C417   1.273       .  A
O409        C419   1.273       .  A
O410        C418   1.274       .  A
O411        C420   1.273       .  A
O412        C421   1.272       .  A
O413        C420   1.273       .  A
O414        C421   1.272       .  A
O415        C422   1.273       .  A
O416        C422   1.273       .  A
C417        C658   1.485       .  S
C418        C457   1.488       .  S
C419        C505   1.483       .  S
C420        C529   1.479       .  S
C421        C481   1.482       .  S
C422        C442   1.483       .  S
C423        N424   1.358       .  A
C423       N1144   1.363   1_565  A
C423        C466   1.483       .  S
N424        C783   1.355   1_565  A
C425        N782   1.356       .  A
C425        N426   1.354   1_655  A
C425        C601   1.480       .  S
N426        C427   1.357       .  A
C427        C433   1.481       .  S
N428       C1139   1.363   1_545  A
C429        C430   1.401       .  A
C429        C434   1.397       .  A
C429        H439   1.084       .  S
C430        C435   1.482       .  S
C430        C431   1.409       .  A
C431        C432   1.404       .  A
C431        O436   1.371       .  S
C432        C433   1.406       .  A
C432        H437   1.083       .  S
C433        C434   1.411       .  A
C434        O438   1.372       .  S
C435        C440   1.407       .  A
C435        C444   1.404       .  A
O436        H452   0.992       .  S
O438        H449   0.992   1_455  S
C440        C441   1.401       .  A
C440        O445   1.372       .  S
C441        C442   1.405       .  A
C441        H446   1.084       .  S
C442        C443   1.412       .  A
C443        C444   1.403       .  A
C443        O447   1.372       .  S
C444        H448   1.084       .  S
O445        H450   0.992       .  S
O447        H451   0.992       .  S
C453        C454   1.403       .  A
C453        C458   1.404       .  A
C453        H463   1.083       .  S
C454        C459   1.487       .  S
C454        C455   1.409       .  A
C455        C456   1.402       .  A
C455        O460   1.371       .  S
C456        C457   1.406       .  A
C456        H461   1.083       .  S
C457        C458   1.413       .  A
C458        O462   1.372       .  S
C459        C464   1.411       .  A
C459        C468   1.402       .  A
O460        H476   0.992       .  S
O462        H473   0.992       .  S
C464        C465   1.408       .  A
C464        O469   1.372       .  S
C465        C466   1.405       .  A
C465        H470   1.083       .  S
C466        C467   1.410       .  A
C467        C468   1.396       .  A
C467        O471   1.371       .  S
C468        H472   1.084       .  S
O469        H474   0.992       .  S
O471       H1191   0.992       .  S
H475       O1187   0.992   1_455  S
C477        C478   1.399       .  A
C477        C482   1.396       .  A
C477        H487   1.084       .  S
C478        C483   1.468       .  S
C478        C479   1.401       .  A
C479        C480   1.398       .  A
C479        O484   1.371       .  S
C480        C481   1.409       .  A
C480        H485   1.083       .  S
C481        C482   1.414       .  A
C482        O486   1.372       .  S
C483        C488   1.402       .  A
C483        C492   1.400       .  A
O484        H500   0.992       .  S
O486        H497   0.992       .  S
C488        C489   1.393       .  A
C488        O493   1.372       .  S
C489        C490   1.407       .  A
C489        H494   1.084       .  S
C490        C491   1.411       .  A
C491        C492   1.402       .  A
C491        O495   1.370       .  S
C492        H496   1.084       .  S
O493        H498   0.992       .  S
O495       H1215   0.991       .  S
H499       O1211   0.991       .  S
C501        C502   1.401       .  A
C501        C506   1.400       .  A
C501        H511   1.084       .  S
C502        C507   1.476       .  S
C502        C503   1.406       .  A
C503        C504   1.397       .  A
C503        O508   1.372       .  S
C504        C505   1.406       .  A
C504        H509   1.083       .  S
C505        C506   1.414       .  A
C506        O510   1.372       .  S
C507        C512   1.409       .  A
C507        C516   1.401       .  A
O508        H524   0.992       .  S
O510        H521   0.992       .  S
C512        C513   1.401       .  A
C512        O517   1.371       .  S
C513        C514   1.402       .  A
C513        H518   1.081       .  S
C514        C515   1.408       .  A
C515        C516   1.396       .  A
C515        O519   1.373       .  S
C516        H520   1.084       .  S
O517        H522   0.992       .  S
O519       H1239   0.992       .  S
H523       O1235   0.992       .  S
C525        C526   1.402       .  A
C525        C530   1.397       .  A
C525        H535   1.084       .  S
C526        C531   1.475       .  S
C526        C527   1.405       .  A
C527        C528   1.398       .  A
C527        O532   1.372       .  S
C528        C529   1.407       .  A
C528        H533   1.083       .  S
C529        C530   1.411       .  A
C530        O534   1.372       .  S
C531        C536   1.404       .  A
C531        C540   1.401       .  A
O532        H548   0.992       .  S
O534        H545   0.992       .  S
C536        C537   1.396       .  A
C536        O541   1.372       .  S
C537        C538   1.408       .  A
C537        H542   1.083       .  S
C538        C539   1.415       .  A
C539        C540   1.399       .  A
C539        O543   1.372       .  S
C540        H544   1.084       .  S
O541        H546   0.992       .  S
O543        H547   0.992       .  S
C549        C550   1.405       .  A
C549        C554   1.403       .  A
C549        H559   1.084       .  S
C550        C555   1.482       .  S
C550        C551   1.407       .  A
C551        C552   1.399   1_556  A
C551        O556   1.372   1_556  S
C552        C553   1.403       .  A
C552        H557   1.084       .  S
C553        C554   1.408   1_554  A
C554        O558   1.370       .  S
C555        C560   1.407       .  A
C555        C564   1.401       .  A
O556        H572   0.992   1_554  S
O558        H569   0.987       .  S
C560        C561   1.401       .  A
C560        O565   1.371       .  S
C561        C562   1.408       .  A
C561        H566   1.083       .  S
C562        C563   1.415       .  A
C563        C564   1.400       .  A
C563        O567   1.372       .  S
C564        H568   1.084       .  S
O565        H570   0.992       .  S
O567        H571   0.992   1_556  S
C573        C574   1.402       .  A
C573        C578   1.401       .  A
C573        H583   1.084       .  S
C574        C579   1.477       .  S
C574        C575   1.406   1_556  A
C575        C576   1.398       .  A
C575        O580   1.372       .  S
C576        C577   1.403       .  A
C576        H581   1.084       .  S
C577        C578   1.407   1_554  A
C578        O582   1.367       .  S
C579        C584   1.404       .  A
C579        C588   1.401       .  A
O580        H596   0.992       .  S
O582        H593   0.988       .  S
C584        C585   1.400       .  A
C584        O589   1.371       .  S
C585        C586   1.409       .  A
C585        H590   1.083       .  S
C586        C587   1.414       .  A
C587        C588   1.401       .  A
C587        O591   1.372       .  S
C588        H592   1.084       .  S
O589        H594   0.992       .  S
O591        H595   0.992   1_556  S
C597        C956   1.404   1_565  A
C597        C602   1.399       .  A
C597        H607   1.083       .  S
C598        C603   1.481       .  S
C598        C955   1.404       .  A
C598        C599   1.408       .  A
C599        C600   1.399       .  A
C599        O604   1.372       .  S
C600       C1317   1.405       .  A
C600        H605   1.084       .  S
C601       C1316   1.405       .  A
C602        O606   1.371       .  S
C603       C1328   1.405       .  A
O604        H620   0.992       .  S
O606        H617   0.992   1_655  S
C608        C609   1.403       .  A
C608        O613   1.373       .  S
C609        H614   1.084       .  S
C610       C1327   1.408       .  A
C611       C1326   1.407   1_455  A
C611        C612   1.401       .  A
C611        O615   1.372       .  S
C612       C1319   1.407   1_455  A
C612        H616   1.083       .  S
O613        H618   0.992       .  S
O615        H619   0.992       .  S
C621        C980   1.403   1_565  A
C621        C626   1.401       .  A
C621        H631   1.083       .  S
C622        C627   1.483       .  S
C622        C979   1.402       .  A
C622        C623   1.406   1_455  A
C623        C624   1.399       .  A
C623        O628   1.372       .  S
C624       C1341   1.408   1_655  A
C624        H629   1.083       .  S
C625       C1112   1.483       .  S
C625       C1340   1.408       .  A
C626        O630   1.372       .  S
C627       C1352   1.402   1_455  A
O628        H644   0.992       .  S
O630        H641   0.992       .  S
C632        C633   1.396       .  A
C632        O637   1.372       .  S
C633        C992   1.407   1_455  A
C633        H638   1.083       .  S
C634        C991   1.406       .  A
C634        C635   1.414       .  A
C635        C636   1.400       .  A
C635        O639   1.372       .  S
C636       C1343   1.402       .  A
C636        H640   1.084       .  S
O637        H642   0.992   1_545  S
O639        H643   0.992       .  S
C645        C646   1.401       .  A
C645        C650   1.398       .  A
C645        H655   1.084       .  S
C646        C651   1.475       .  S
C646        C647   1.406       .  A
C647        C648   1.398       .  A
C647        O652   1.372       .  S
C648        C649   1.405       .  A
C648        H653   1.083       .  S
C649        C650   1.412       .  A
C650        O654   1.372       .  S
C651        C656   1.405       .  A
C651        C660   1.400       .  A
O652        H668   0.992       .  S
O654        H665   0.992       .  S
C656        C657   1.397       .  A
C656        O661   1.372       .  S
C657        C658   1.408       .  A
C657        H662   1.083       .  S
C658        C659   1.415       .  A
C659        C660   1.399       .  A
C659        O663   1.372       .  S
C660        H664   1.084       .  S
O661        H666   0.992       .  S
O663        H667   0.992       .  S
C669        C670   1.403       .  A
C669        C674   1.401       .  A
C669        H679   1.084       .  S
C670        C675   1.482       .  S
C670        C671   1.407       .  A
C671        C672   1.398       .  A
C671        O676   1.372       .  S
C672        C673   1.407       .  A
C672        H677   1.083       .  S
C673        C674   1.414       .  A
C674        O678   1.371       .  S
C675        C680   1.408       .  A
C675        C684   1.406       .  A
O676        H692   0.992       .  S
O678        H689   0.992   1_556  S
C680        C681   1.397       .  A
C680        O685   1.372       .  S
C681        C682   1.401       .  A
C681        H686   1.084       .  S
C682        C683   1.406       .  A
C683        C684   1.403       .  A
C683        O687   1.370       .  S
C684        H688   1.084       .  S
O685        H690   0.992       .  S
O687        H691   0.992       .  S
C693        C694   1.399       .  A
C693        C698   1.402       .  A
C693        H703   1.084       .  S
C694        C699   1.477       .  S
C694        C695   1.405       .  A
C695        C696   1.400       .  A
C695        O700   1.372       .  S
C696        C697   1.407       .  A
C696        H701   1.083       .  S
C697        C698   1.417       .  A
C698        O702   1.371       .  S
C699        C704   1.405       .  A
C699        C708   1.403       .  A
O700        H716   0.992       .  S
O702        H713   0.992   1_556  S
C704        C705   1.397       .  A
C704        O709   1.372       .  S
C705        C706   1.403       .  A
C705        H710   1.084       .  S
C706        C707   1.409       .  A
C707        C708   1.404       .  A
C707        O711   1.371       .  S
C708        H712   1.083       .  S
O709        H714   0.992       .  S
O711        H715   0.991       .  S
C717        N718   1.356       .  A
C717        N722   1.361       .  A
C717       C1040   1.472       .  S
N718        C719   1.357       .  A
C719        N720   1.355       .  A
C719       C1007   1.485       .  S
N720        C721   1.356       .  A
C721        N722   1.362       .  A
C721       C1064   1.476       .  S
Zn723       O727   1.962       .  S
Zn723       O728   2.031       .  S
Zn723       O732   2.019   1_556  S
Zn723      O1097   2.014   1_545  S
Zn724       O727   1.952       .  S
Zn724       O731   2.014       .  S
Zn724       O735   2.009       .  S
Zn725       O730   2.023   1_556  S
Zn725       O733   2.012       .  S
Zn725      O1094   2.014   1_545  S
Zn726      O1085   1.954       .  S
Zn726       O737   2.005       .  S
Zn726       O738   2.004       .  S
O727      Zn1084   1.961   1_545  S
O728        C740   1.275       .  A
O729        C741   1.274       .  A
O731        C740   1.274       .  A
O732        C742   1.274       .  A
O733        C741   1.273       .  A
O734        C743   1.275       .  A
O735        C744   1.273       .  A
O736      Zn1083   2.014       .  S
O736        C743   1.273       .  A
O737       C1102   1.272       .  A
O738        C745   1.272       .  A
O739      Zn1081   2.009       .  S
O739        C745   1.272       .  A
C740       C1031   1.491       .  S
C741        C944   1.483       .  S
C742        C992   1.483       .  S
C743       C1055   1.488       .  S
C744        C968   1.478       .  S
C744       O1095   1.276   1_545  A
C745        C920   1.480       .  S
C746        N747   1.355       .  A
C746        N751   1.362       .  A
C746        C935   1.473       .  S
N747        C748   1.354       .  A
C748        N749   1.353       .  A
C748        C896   1.473       .  S
N749        C750   1.356       .  A
C750        N751   1.362       .  A
C750        C911   1.472   1_554  S
C752        N753   1.358       .  A
C752        N757   1.363       .  A
C752        C848   1.485       .  S
N753       C1112   1.353       .  A
C754       N1111   1.355       .  A
N755        C756   1.356       .  A
C756        C872   1.470       .  S
Zn758       O762   1.956       .  S
Zn758       O763   2.008       .  S
Zn758       O767   2.016       .  S
Zn758       O774   2.030       .  S
Zn759       O762   1.956       .  S
Zn759       O764   2.009       .  S
Zn759       O766   2.003       .  S
Zn759       O770   2.017       .  S
Zn760       O762   1.969       .  S
Zn760       O765   2.026       .  S
Zn760       O768   2.046       .  S
Zn760       O771   2.017       .  S
Zn761       O762   1.952       .  S
Zn761       O769   1.998       .  S
Zn761       O772   2.010       .  S
Zn761       O773   2.033       .  S
O763        C775   1.274       .  A
O764        C776   1.272       .  A
O765        C777   1.276       .  A
O766        C775   1.273       .  A
O767        C777   1.273       .  A
O768        C776   1.276       .  A
O769        C778   1.273       .  A
O770        C779   1.273       .  A
O771        C778   1.275       .  A
O772        C779   1.273       .  A
O773        C780   1.274       .  A
O774        C780   1.274       .  A
C775       C1016   1.481       .  S
C776        C815   1.491       .  S
C777        C863   1.488       .  S
C778        C887   1.483       .  S
C779        C839   1.488       .  S
C780        C800   1.494       .  S
C781        N782   1.359       .  A
C781        C824   1.479       .  S
C783        N784   1.357       .  A
C783        C959   1.481       .  S
N784        C785   1.361       .  A
C785       N1144   1.365       .  A
C785        C791   1.483       .  S
N786       C1143   1.363       .  A
C787        C788   1.403       .  A
C787        C792   1.401       .  A
C787        H797   1.084       .  S
C788        C793   1.486       .  S
C788        C789   1.409       .  A
C789        C790   1.406       .  A
C789        O794   1.371       .  S
C790        C791   1.406       .  A
C790        H795   1.083       .  S
C791        C792   1.410       .  A
C792        O796   1.372       .  S
C793        C798   1.407       .  A
C793        C802   1.402       .  A
O794        H810   0.992       .  S
O796        H807   0.991       .  S
C798        C799   1.405       .  A
C798        O803   1.372       .  S
C799        C800   1.409       .  A
C799        H804   1.083       .  S
C800        C801   1.415       .  A
C801        C802   1.403       .  A
C801        O805   1.371       .  S
C802        H806   1.084       .  S
O803        H808   0.992       .  S
O805        H809   0.992       .  S
C811        C812   1.401       .  A
C811        C816   1.401       .  A
C811        H821   1.084       .  S
C812        C817   1.484       .  S
C812        C813   1.408       .  A
C813        C814   1.404       .  A
C813        O818   1.371       .  S
C814        C815   1.407       .  A
C814        H819   1.083       .  S
C815        C816   1.415       .  A
C816        O820   1.372       .  S
C817        C822   1.410       .  A
C817        C826   1.402       .  A
O818        H834   0.992       .  S
O820        H831   0.992       .  S
C822        C823   1.406       .  A
C822        O827   1.372       .  S
C823        C824   1.404       .  A
C823        H828   1.082       .  S
C824        C825   1.409       .  A
C825        C826   1.398       .  A
C825        O829   1.371       .  S
C826        H830   1.084       .  S
O827        H832   0.992       .  S
C835        C836   1.399       .  A
C835        C840   1.396       .  A
C835        H845   1.084       .  S
C836        C841   1.476       .  S
C836        C837   1.404       .  A
C837        C838   1.403       .  A
C837        O842   1.372       .  S
C838        C839   1.411       .  A
C838        H843   1.083       .  S
C839        C840   1.414       .  A
C840        O844   1.372       .  S
C841        C846   1.403       .  A
C841        C850   1.402       .  A
O842        H858   0.992       .  S
O844        H855   0.992       .  S
C846        C847   1.394       .  A
C846        O851   1.372       .  S
C847        C848   1.407       .  A
C847        H852   1.083       .  S
C848        C849   1.412       .  A
C849        C850   1.406       .  A
C849        O853   1.370       .  S
C850        H854   1.084       .  S
O851        H856   0.992       .  S
C859        C860   1.400       .  A
C859        C864   1.402       .  A
C859        H869   1.084       .  S
C860        C865   1.478       .  S
C860        C861   1.406       .  A
C861        C862   1.399       .  A
C861        O866   1.372       .  S
C862        C863   1.407       .  A
C862        H867   1.083       .  S
C863        C864   1.416       .  A
C864        O868   1.371       .  S
C865        C870   1.408       .  A
C865        C874   1.401       .  A
O866        H882   0.992       .  S
O868        H879   0.992       .  S
C870        C871   1.401       .  A
C870        O875   1.370       .  S
C871        C872   1.402       .  A
C871        H876   1.083       .  S
C872        C873   1.409       .  A
C873        C874   1.397       .  A
C873        O877   1.373       .  S
C874        H878   1.084       .  S
O875        H880   0.992       .  S
C883        C884   1.399       .  A
C883        C888   1.395       .  A
C883        H893   1.084       .  S
C884        C889   1.472       .  S
C884        C885   1.405       .  A
C885        C886   1.398       .  A
C885        O890   1.372       .  S
C886        C887   1.408       .  A
C886        H891   1.083       .  S
C887        C888   1.415       .  A
C888        O892   1.372       .  S
C889        C894   1.405       .  A
C889        C898   1.402       .  A
O890        H906   0.992       .  S
O892        H903   0.992       .  S
C894        C895   1.396       .  A
C894        O899   1.372       .  S
C895        C896   1.404       .  A
C895        H900   1.084       .  S
C896        C897   1.411       .  A
C897        C898   1.398       .  A
C897        O901   1.372       .  S
C898        H902   1.084       .  S
O899        H904   0.992       .  S
O901        H905   0.992       .  S
C907        C908   1.403       .  A
C907        C912   1.400       .  A
C907        H917   1.084       .  S
C908        C913   1.475       .  S
C908        C909   1.407       .  A
C909        C910   1.397   1_556  A
C909        O914   1.372   1_556  S
C910        C911   1.403   1_554  A
C910        H915   1.084       .  S
C911        C912   1.407       .  A
C912        O916   1.369       .  S
C913        C918   1.405       .  A
C913        C922   1.401       .  A
O914        H930   0.992   1_554  S
O916        H927   0.987       .  S
C918        C919   1.398       .  A
C918        O923   1.371       .  S
C919        C920   1.407       .  A
C919        H924   1.083       .  S
C920        C921   1.412       .  A
C921        C922   1.398       .  A
C921        O925   1.372       .  S
C922        H926   1.084       .  S
O923        H928   0.992       .  S
O925        H929   0.992   1_556  S
C931        C932   1.404       .  A
C931        C936   1.401       .  A
C931        H941   1.084       .  S
C932        C937   1.478       .  S
C932        C933   1.407   1_556  A
C933        C934   1.398       .  A
C933        O938   1.372       .  S
C934        C935   1.402       .  A
C934        H939   1.084       .  S
C935        C936   1.406   1_554  A
C936        O940   1.369       .  S
C937        C942   1.407       .  A
C937        C946   1.401       .  A
O938        H954   0.992       .  S
O940        H951   0.992       .  S
C942        C943   1.401       .  A
C942        O947   1.372       .  S
C943        C944   1.407       .  A
C943        H948   1.083       .  S
C944        C945   1.412       .  A
C945        C946   1.398       .  A
C945        O949   1.372       .  S
C946        H950   1.084       .  S
O947        H952   0.992       .  S
O949        H953   0.992       .  S
C955        C960   1.399       .  A
C955        H965   1.083       .  S
C956        C961   1.490       .  S
C956        C957   1.412       .  A
C957        C958   1.403       .  A
C957        O962   1.372       .  S
C958        H963   1.084       .  S
C959       C1318   1.410   1_545  A
C960       C1317   1.410       .  A
C960        O964   1.372       .  S
C961       C1324   1.412   1_545  A
O962        H978   0.992       .  S
O964        H975   0.992       .  S
C966       C1319   1.410       .  A
C966        C967   1.399       .  A
C966        O971   1.373       .  S
C967       C1326   1.402       .  A
C967        H972   1.084       .  S
C968       C1325   1.402   1_545  A
C969        C970   1.401       .  A
C969        O973   1.372       .  S
C970        H974   1.083       .  S
O971        H976   0.992       .  S
O973        H977   0.992       .  S
C979        C984   1.401       .  A
C979        H989   1.083       .  S
C980        C985   1.485       .  S
C980        C981   1.408       .  A
C981        C982   1.399       .  A
C981        O986   1.372       .  S
C982        H987   1.083       .  S
C983       C1342   1.413       .  A
C984       C1341   1.415       .  A
C984        O988   1.371       .  S
C985       C1348   1.408       .  A
O986       H1002   0.992       .  S
O988        H999   0.992       .  S
C990       C1343   1.407       .  A
C990        C991   1.396       .  A
C990        O995   1.373       .  S
C991        H996   1.083       .  S
C992        C993   1.414       .  A
C993        C994   1.400       .  A
C993        O997   1.371   1_545  S
C994        H998   1.084   1_545  S
O995       H1000   0.992       .  S
O997       H1001   0.992   1_565  S
C1003      C1004   1.401       .  A
C1003      C1008   1.397       .  A
C1003      H1013   1.084       .  S
C1004      C1009   1.477       .  S
C1004      C1005   1.406       .  A
C1005      C1006   1.399       .  A
C1005      O1010   1.373       .  S
C1006      C1007   1.407       .  A
C1006      H1011   1.083       .  S
C1007      C1008   1.415       .  A
C1008      O1012   1.372       .  S
C1009      C1014   1.407       .  A
C1009      C1018   1.402       .  A
O1010      H1026   0.992       .  S
O1012      H1023   0.992       .  S
C1014      C1015   1.396       .  A
C1014      O1019   1.372       .  S
C1015      C1016   1.406       .  A
C1015      H1020   1.083       .  S
C1016      C1017   1.414       .  A
C1017      C1018   1.398       .  A
C1017      O1021   1.372       .  S
C1018      H1022   1.084       .  S
O1019      H1024   0.992       .  S
O1021      H1025   0.992       .  S
C1027      C1028   1.402       .  A
C1027      C1032   1.404       .  A
C1027      H1037   1.084       .  S
C1028      C1033   1.478       .  S
C1028      C1029   1.404       .  A
C1029      C1030   1.397       .  A
C1029      O1034   1.372       .  S
C1030      C1031   1.408       .  A
C1030      H1035   1.083       .  S
C1031      C1032   1.416       .  A
C1032      O1036   1.371       .  S
C1033      C1038   1.406       .  A
C1033      C1042   1.404       .  A
O1034      H1050   0.992       .  S
O1036      H1047   0.992   1_556  S
C1038      C1039   1.399       .  A
C1038      O1043   1.371       .  S
C1039      C1040   1.403       .  A
C1039      H1044   1.084       .  S
C1040      C1041   1.408       .  A
C1041      C1042   1.402       .  A
C1041      O1045   1.371       .  S
C1042      H1046   1.084       .  S
O1043      H1048   0.992       .  S
O1045      H1049   0.992       .  S
C1051      C1052   1.399       .  A
C1051      C1056   1.403       .  A
C1051      H1061   1.084       .  S
C1052      C1057   1.472       .  S
C1052      C1053   1.403       .  A
C1053      C1054   1.396       .  A
C1053      O1058   1.372       .  S
C1054      C1055   1.407       .  A
C1054      H1059   1.083       .  S
C1055      C1056   1.417       .  A
C1056      O1060   1.371       .  S
C1057      C1062   1.405       .  A
C1057      C1066   1.400       .  A
O1058      H1074   0.992       .  S
O1060      H1071   0.992   1_556  S
C1062      C1063   1.397       .  A
C1062      O1067   1.371       .  S
C1063      C1064   1.404       .  A
C1063      H1068   1.084       .  S
C1064      C1065   1.408       .  A
C1065      C1066   1.400       .  A
C1065      O1069   1.368       .  S
C1066      H1070   1.084       .  S
O1067      H1072   0.992       .  S
O1069      H1073   0.989       .  S
C1075      N1076   1.357       .  A
C1075      N1080   1.360       .  A
C1075      C1398   1.470       .  S
N1076      C1077   1.357       .  A
C1077      N1078   1.354       .  A
C1077      C1365   1.481       .  S
N1078      C1079   1.355       .  A
C1079      N1080   1.359       .  A
C1079      C1422   1.470       .  S
Zn1081     O1085   1.961       .  S
Zn1081     O1086   2.021       .  S
Zn1081     O1090   2.019   1_556  S
Zn1082     O1085   1.956   1_455  S
Zn1082     O1089   2.014   1_455  S
Zn1082     O1093   2.023       .  S
Zn1083     O1088   2.004   1_556  S
Zn1083     O1091   2.008       .  S
Zn1084     O1095   2.032       .  S
Zn1084     O1096   2.026       .  S
O1086      C1098   1.273       .  A
O1087      C1099   1.273       .  A
O1089      C1098   1.274       .  A
O1090      C1100   1.274       .  A
O1091      C1099   1.272       .  A
O1092      C1101   1.275       .  A
O1093      C1102   1.273   1_455  A
O1094      C1101   1.273       .  A
O1096      C1103   1.276       .  A
O1097      C1103   1.274       .  A
C1098      C1389   1.486       .  S
C1099      C1302   1.488       .  S
C1100      C1350   1.487       .  S
C1101      C1413   1.488       .  S
C1102      C1326   1.472       .  S
C1103      C1278   1.490       .  S
C1104      N1105   1.358       .  A
C1104      N1109   1.361       .  A
C1104      C1293   1.476       .  S
N1105      C1106   1.356       .  A
C1106      N1107   1.355       .  A
C1106      C1254   1.487       .  S
N1107      C1108   1.356       .  A
C1108      N1109   1.362       .  A
C1108      C1269   1.472       .  S
C1110      N1111   1.359       .  A
C1110      N1115   1.362       .  A
C1110      C1206   1.479       .  S
N1113      C1114   1.357       .  A
C1114      C1230   1.477       .  S
Zn1116     O1120   1.948       .  S
Zn1116     O1121   2.000       .  S
Zn1116     O1125   2.008       .  S
Zn1116     O1132   2.005       .  S
Zn1117     O1120   1.953       .  S
Zn1117     O1122   2.014       .  S
Zn1117     O1124   2.007       .  S
Zn1117     O1128   2.005       .  S
Zn1118     O1120   1.964       .  S
Zn1118     O1123   2.026       .  S
Zn1118     O1126   2.051       .  S
Zn1118     O1129   2.009       .  S
Zn1119     O1120   1.968       .  S
Zn1119     O1127   2.014       .  S
Zn1119     O1130   2.024       .  S
Zn1119     O1131   2.047       .  S
O1121      C1133   1.273       .  A
O1122      C1134   1.272       .  A
O1123      C1135   1.275       .  A
O1124      C1133   1.273       .  A
O1125      C1135   1.272       .  A
O1126      C1134   1.277       .  A
O1127      C1136   1.275       .  A
O1128      C1137   1.272       .  A
O1129      C1136   1.275       .  A
O1130      C1137   1.275       .  A
O1131      C1138   1.275       .  A
O1132      C1138   1.271       .  A
C1133      C1374   1.481       .  S
C1134      C1173   1.491       .  S
C1135      C1221   1.486       .  S
C1136      C1245   1.479       .  S
C1137      C1197   1.482       .  S
C1138      C1158   1.493       .  S
C1139      N1140   1.358       .  A
C1139      C1182   1.483       .  S
C1141      N1142   1.353       .  A
C1141      C1317   1.478       .  S
N1142      C1143   1.358       .  A
C1143      C1149   1.487       .  S
C1145      C1146   1.401       .  A
C1145      C1150   1.395       .  A
C1145      H1155   1.084       .  S
C1146      C1151   1.485       .  S
C1146      C1147   1.409       .  A
C1147      C1148   1.407       .  A
C1147      O1152   1.371       .  S
C1148      C1149   1.408       .  A
C1148      H1153   1.083       .  S
C1149      C1150   1.413       .  A
C1150      O1154   1.372       .  S
C1151      C1156   1.408       .  A
C1151      C1160   1.401       .  A
O1152      H1168   0.992       .  S
O1154      H1165   0.992       .  S
C1156      C1157   1.407       .  A
C1156      O1161   1.371       .  S
C1157      C1158   1.410       .  A
C1157      H1162   1.083       .  S
C1158      C1159   1.415       .  A
C1159      C1160   1.397       .  A
C1159      O1163   1.372       .  S
C1160      H1164   1.084       .  S
O1161      H1166   0.992       .  S
O1163      H1167   0.992       .  S
C1169      C1170   1.402       .  A
C1169      C1174   1.402       .  A
C1169      H1179   1.084       .  S
C1170      C1175   1.489       .  S
C1170      C1171   1.410       .  A
C1171      C1172   1.405       .  A
C1171      O1176   1.371       .  S
C1172      C1173   1.407       .  A
C1172      H1177   1.083       .  S
C1173      C1174   1.414       .  A
C1174      O1178   1.372       .  S
C1175      C1180   1.411       .  A
C1175      C1184   1.403       .  A
O1176      H1192   0.992       .  S
O1178      H1189   0.992       .  S
C1180      C1181   1.407       .  A
C1180      O1185   1.372       .  S
C1181      C1182   1.404       .  A
C1181      H1186   1.082       .  S
C1182      C1183   1.410       .  A
C1183      C1184   1.399       .  A
C1183      O1187   1.371       .  S
C1184      H1188   1.084       .  S
O1185      H1190   0.992       .  S
C1193      C1194   1.401       .  A
C1193      C1198   1.399       .  A
C1193      H1203   1.084       .  S
C1194      C1199   1.474       .  S
C1194      C1195   1.404       .  A
C1195      C1196   1.400       .  A
C1195      O1200   1.372       .  S
C1196      C1197   1.408       .  A
C1196      H1201   1.083       .  S
C1197      C1198   1.411       .  A
C1198      O1202   1.372       .  S
C1199      C1204   1.405       .  A
C1199      C1208   1.401       .  A
O1200      H1216   0.992       .  S
O1202      H1213   0.992       .  S
C1204      C1205   1.396       .  A
C1204      O1209   1.372       .  S
C1205      C1206   1.406       .  A
C1205      H1210   1.084       .  S
C1206      C1207   1.410       .  A
C1207      C1208   1.403       .  A
C1207      O1211   1.371       .  S
C1208      H1212   1.084       .  S
O1209      H1214   0.992       .  S
C1217      C1218   1.401       .  A
C1217      C1222   1.402       .  A
C1217      H1227   1.084       .  S
C1218      C1223   1.480       .  S
C1218      C1219   1.407       .  A
C1219      C1220   1.399       .  A
C1219      O1224   1.372       .  S
C1220      C1221   1.405       .  A
C1220      H1225   1.083       .  S
C1221      C1222   1.415       .  A
C1222      O1226   1.372       .  S
C1223      C1228   1.408       .  A
C1223      C1232   1.401       .  A
O1224      H1240   0.992       .  S
O1226      H1237   0.992       .  S
C1228      C1229   1.402       .  A
C1228      O1233   1.371       .  S
C1229      C1230   1.404       .  A
C1229      H1234   1.081       .  S
C1230      C1231   1.410       .  A
C1231      C1232   1.398       .  A
C1231      O1235   1.372       .  S
C1232      H1236   1.084       .  S
O1233      H1238   0.992       .  S
C1241      C1242   1.402       .  A
C1241      C1246   1.398       .  A
C1241      H1251   1.084       .  S
C1242      C1247   1.477       .  S
C1242      C1243   1.406       .  A
C1243      C1244   1.398       .  A
C1243      O1248   1.372       .  S
C1244      C1245   1.407       .  A
C1244      H1249   1.083       .  S
C1245      C1246   1.411       .  A
C1246      O1250   1.372       .  S
C1247      C1252   1.405       .  A
C1247      C1256   1.400       .  A
O1248      H1264   0.992       .  S
O1250      H1261   0.992       .  S
C1252      C1253   1.399       .  A
C1252      O1257   1.372       .  S
C1253      C1254   1.408       .  A
C1253      H1258   1.083       .  S
C1254      C1255   1.416       .  A
C1255      C1256   1.398       .  A
C1255      O1259   1.372       .  S
C1256      H1260   1.084       .  S
O1257      H1262   0.992       .  S
O1259      H1263   0.992       .  S
C1265      C1266   1.403       .  A
C1265      C1270   1.400       .  A
C1265      H1275   1.084       .  S
C1266      C1271   1.479       .  S
C1266      C1267   1.408       .  A
C1267      C1268   1.400   1_556  A
C1267      O1272   1.372   1_556  S
C1268      C1269   1.403       .  A
C1268      H1273   1.084       .  S
C1269      C1270   1.407   1_554  A
C1270      O1274   1.369       .  S
C1271      C1276   1.405       .  A
C1271      C1280   1.401       .  A
O1272      H1288   0.992   1_554  S
O1274      H1285   0.990       .  S
C1276      C1277   1.401       .  A
C1276      O1281   1.371       .  S
C1277      C1278   1.409       .  A
C1277      H1282   1.083       .  S
C1278      C1279   1.415       .  A
C1279      C1280   1.400       .  A
C1279      O1283   1.372       .  S
C1280      H1284   1.084   1_556  S
O1281      H1286   0.992       .  S
O1283      H1287   0.992   1_556  S
C1289      C1290   1.402       .  A
C1289      C1294   1.403       .  A
C1289      H1299   1.084       .  S
C1290      C1295   1.473       .  S
C1290      C1291   1.404   1_556  A
C1291      C1292   1.397       .  A
C1291      O1296   1.371       .  S
C1292      C1293   1.404       .  A
C1292      H1297   1.084       .  S
C1293      C1294   1.408   1_554  A
C1294      O1298   1.369       .  S
C1295      C1300   1.403       .  A
C1295      C1304   1.398       .  A
O1296      H1312   0.992       .  S
O1298      H1309   0.990       .  S
C1300      C1301   1.402       .  A
C1300      O1305   1.371       .  S
C1301      C1302   1.410       .  A
C1301      H1306   1.083       .  S
C1302      C1303   1.415       .  A
C1303      C1304   1.397       .  A
C1303      O1307   1.372       .  S
C1304      H1308   1.084   1_556  S
O1305      H1310   0.992       .  S
O1307      H1311   0.992   1_556  S
C1313      C1318   1.400       .  A
C1313      H1323   1.083       .  S
C1314      C1319   1.486       .  S
C1314      C1315   1.409       .  A
C1315      C1316   1.399       .  A
C1315      O1320   1.372       .  S
C1316      H1321   1.084       .  S
C1318      O1322   1.372       .  S
O1320      H1336   0.992       .  S
O1322      H1333   0.992       .  S
C1324      C1325   1.402       .  A
C1324      O1329   1.372       .  S
C1325      H1330   1.084       .  S
C1327      C1328   1.400       .  A
C1327      O1331   1.372       .  S
C1328      H1332   1.084       .  S
O1329      H1334   0.992       .  S
O1331      H1335   0.992       .  S
C1337      C1342   1.397       .  A
C1337      H1347   1.084       .  S
C1338      C1343   1.480       .  S
C1338      C1339   1.407       .  A
C1339      C1340   1.400       .  A
C1339      O1344   1.372       .  S
C1340      H1345   1.083       .  S
C1342      O1346   1.372       .  S
O1344      H1360   0.992       .  S
O1346      H1357   0.992       .  S
C1348      C1349   1.402       .  A
C1348      O1353   1.372       .  S
C1349      H1354   1.083       .  S
C1350      C1351   1.413       .  A
C1351      C1352   1.401       .  A
C1351      O1355   1.372       .  S
C1352      H1356   1.084       .  S
O1353      H1358   0.992   1_545  S
O1355      H1359   0.992       .  S
C1361      C1362   1.399       .  A
C1361      C1366   1.396       .  A
C1361      H1371   1.084       .  S
C1362      C1367   1.473       .  S
C1362      C1363   1.405       .  A
C1363      C1364   1.398       .  A
C1363      O1368   1.372       .  S
C1364      C1365   1.407       .  A
C1364      H1369   1.083       .  S
C1365      C1366   1.414       .  A
C1366      O1370   1.372       .  S
C1367      C1372   1.404       .  A
C1367      C1376   1.400       .  A
O1368      H1384   0.992       .  S
O1370      H1381   0.992       .  S
C1372      C1373   1.396       .  A
C1372      O1377   1.372       .  S
C1373      C1374   1.407       .  A
C1373      H1378   1.083       .  S
C1374      C1375   1.414       .  A
C1375      C1376   1.398       .  A
C1375      O1379   1.372       .  S
C1376      H1380   1.084       .  S
O1377      H1382   0.992       .  S
O1379      H1383   0.992       .  S
C1385      C1386   1.403       .  A
C1385      C1390   1.403       .  A
C1385      H1395   1.084       .  S
C1386      C1391   1.480       .  S
C1386      C1387   1.406       .  A
C1387      C1388   1.396       .  A
C1387      O1392   1.372       .  S
C1388      C1389   1.406       .  A
C1388      H1393   1.083       .  S
C1389      C1390   1.415       .  A
C1390      O1394   1.371       .  S
C1391      C1396   1.408       .  A
C1391      C1400   1.405       .  A
O1392      H1408   0.992       .  S
O1394      H1405   0.992   1_556  S
C1396      C1397   1.398       .  A
C1396      O1401   1.372       .  S
C1397      C1398   1.402       .  A
C1397      H1402   1.084       .  S
C1398      C1399   1.405       .  A
C1399      C1400   1.400       .  A
C1399      O1403   1.370       .  S
C1400      H1404   1.084       .  S
O1401      H1406   0.992       .  S
O1403      H1407   0.992       .  S
C1409      C1410   1.400       .  A
C1409      C1414   1.402       .  A
C1409      H1419   1.084       .  S
C1410      C1415   1.473       .  S
C1410      C1411   1.404       .  A
C1411      C1412   1.397       .  A
C1411      O1416   1.372       .  S
C1412      C1413   1.408       .  A
C1412      H1417   1.083       .  S
C1413      C1414   1.417       .  A
C1414      O1418   1.371       .  S
C1415      C1420   1.405       .  A
C1415      C1424   1.403       .  A
O1416      H1432   0.992       .  S
O1418      H1429   0.992   1_556  S
C1420      C1421   1.396       .  A
C1420      O1425   1.372       .  S
C1421      C1422   1.403       .  A
C1421      H1426   1.084       .  S
C1422      C1423   1.408       .  A
C1423      C1424   1.402       .  A
C1423      O1427   1.372       .  S
C1424      H1428   1.083       .  S
O1425      H1430   0.992       .  S
O1427      H1431   0.991       .  S
