geometry optimzed in LAMMPS
_audit_creation_date              2020-12-01 
_audit_creation_method            'lammps2cif' 
_symmetry_space_group_name_H-M    'P1' 
_symmetry_Int_Tables_number       1 
_symmetry_cell_setting            triclinic 
loop_ 
_symmetry_equiv_pos_as_xyz 
  x,y,z 
_cell_length_a                    64.93101219 
_cell_length_b                    65.0702889451944 
_cell_length_c                    64.94751206957649 
_cell_angle_alpha                 89.96664066525463 
_cell_angle_beta                  89.96469816441542 
_cell_angle_gamma                 89.98410110354565 
loop_ 
_atom_site_label 
_atom_site_type_symbol 
_atom_site_fract_x 
_atom_site_fract_y 
_atom_site_fract_z 
_atom_site_charge 
C1          C  0.69257073  0.72021794  0.72523974     0.03800
C2          C  0.69932296  0.73018695  0.70733979    -0.12400
C3          C  0.71670998  0.72307691  0.69672740     0.01300
C4          C  0.72743841  0.70588100  0.70417855    -0.10900
C5          C  0.72080093  0.69581162  0.72211337     0.03800
C6          C  0.70339787  0.70310258  0.73268091    -0.10300
H7          H  0.69083321  0.74328794  0.70147501     0.09400
H8          H  0.74068222  0.70010535  0.69582196     0.06900
H9          H  0.69796704  0.69514174  0.74630287     0.06700
C10         C  0.71724290  0.27129526  0.69278664     0.03800
C11         C  0.69986129  0.26273099  0.70225079    -0.12400
C12         C  0.69117719  0.27195526  0.71972652     0.01300
C13         C  0.70016324  0.28987281  0.72777829    -0.10900
C14         C  0.71742334  0.29868863  0.71820905     0.03800
C15         C  0.72592557  0.28936391  0.70069719    -0.10300
H16         H  0.69291250  0.24901943  0.69581247     0.09400
H17         H  0.69355457  0.29712177  0.74127278     0.06900
H18         H  0.73923792  0.29614085  0.69325579     0.06700
C19         C  0.27425228  0.27025940  0.68526084     0.03800
C20         C  0.29143323  0.26150542  0.69503558    -0.12400
C21         C  0.29993138  0.27070130  0.71263894     0.01300
C22         C  0.29107902  0.28871693  0.72055806    -0.10900
C23         C  0.27378314  0.29752705  0.71106240     0.03800
C24         C  0.26544022  0.28825517  0.69337890    -0.10300
H25         H  0.29832475  0.24766109  0.68881884     0.09400
H26         H  0.29756088  0.29579699  0.73419529     0.06900
H27         H  0.25216288  0.29506367  0.68591731     0.06700
C28         C  0.27154483  0.68407996  0.70941198     0.03800
C29         C  0.28959476  0.69095392  0.71907392    -0.12400
C30         C  0.29968505  0.70864482  0.71204713     0.01300
C31         C  0.29150341  0.71974243  0.69545094    -0.10900
C32         C  0.27344428  0.71307064  0.68574860     0.03800
C33         C  0.26364021  0.69511386  0.69257656    -0.10300
H34         H  0.29572030  0.68262878  0.73217328     0.09400
H35         H  0.29913929  0.73357655  0.69014096     0.06900
H36         H  0.24971962  0.68991533  0.68499425     0.06700
C37         C  0.29860874  0.71251914  0.27381647     0.03800
C38         C  0.28981837  0.72095565  0.29165074    -0.12400
C39         C  0.27188316  0.71233332  0.30010226     0.01300
C40         C  0.26280986  0.69520921  0.29059649    -0.10900
C41         C  0.27162011  0.68670336  0.27281564     0.03800
C42         C  0.28943657  0.69546576  0.26444677    -0.10300
H43         H  0.29699308  0.73407046  0.29900814     0.09400
H44         H  0.24910588  0.68833816  0.29719510     0.06900
H45         H  0.29633617  0.68882724  0.25077441     0.06700
C46         C  0.71610783  0.72035098  0.29934187     0.03800
C47         C  0.72732989  0.70399353  0.29096392    -0.12400
C48         C  0.72058466  0.69443345  0.27288177     0.01300
C49         C  0.70264212  0.70130810  0.26309749    -0.10900
C50         C  0.69131613  0.71761698  0.27145822     0.03800
C51         C  0.69808992  0.72713431  0.28960253    -0.10300
H52         H  0.74108042  0.69850733  0.29866707     0.09400
H53         H  0.69728862  0.69372358  0.24924220     0.06900
H54         H  0.68928912  0.73966536  0.29619990     0.06700
C55         C  0.71880828  0.30279648  0.27396541     0.03800
C56         C  0.72771160  0.29449371  0.29177729    -0.12400
C57         C  0.72003695  0.27621789  0.30025127     0.01300
C58         C  0.70344497  0.26617732  0.29074801    -0.10900
C59         C  0.69437110  0.27450168  0.27297889     0.03800
C60         C  0.70215453  0.29279903  0.26463920    -0.10300
H61         H  0.74047604  0.30232373  0.29912041     0.09400
H62         H  0.69736381  0.25214571  0.29738071     0.06900
H63         H  0.69509133  0.29939886  0.25103581     0.06700
N64         N  0.79781222  0.53777607  0.79071356    -0.26600
N65         N  0.78260517  0.52844495  0.78093349    -0.34500
C66         C  0.77124282  0.54264358  0.77104129     0.01700
C67         C  0.77973312  0.56180221  0.77476171     0.07700
C68         C  0.79655577  0.55812384  0.78728776    -0.05400
H69         H  0.75784720  0.53926679  0.76174258     0.08400
H70         H  0.80695451  0.56943194  0.79367746     0.09600
Cu71       Cu  0.77813709  0.49680528  0.78129608     0.44200
Cu72       Cu  0.81907848  0.52261395  0.80897339     0.42000
Cu73       Cu  0.81208053  0.46770484  0.81450892     0.43900
N74         N  0.77827334  0.46488723  0.78283261    -0.34000
N75         N  0.79089788  0.45430750  0.79479426    -0.28300
C76         C  0.78801961  0.43411744  0.79145685    -0.04400
C77         C  0.77279633  0.43186963  0.77675889     0.07800
C78         C  0.76691317  0.45167039  0.77165421     0.01600
H79         H  0.79652115  0.42197048  0.79902216     0.09300
H80         H  0.75557674  0.45613732  0.76029937     0.08400
N81         N  0.83314738  0.48462502  0.83141405    -0.35500
N82         N  0.83612266  0.50456319  0.82892011    -0.27700
C83         C  0.85081776  0.51087577  0.84202829    -0.02900
C84         C  0.85732280  0.49413306  0.85346891     0.05700
C85         C  0.84577013  0.47774503  0.84629606     0.03800
H86         H  0.85621722  0.52655796  0.84325216     0.08900
H87         H  0.84626911  0.46201937  0.85169942     0.07700
N88         N  0.19105467  0.53382914  0.79056500    -0.26600
N89         N  0.20147442  0.52411690  0.77603555    -0.34500
C90         C  0.21071895  0.53803746  0.76386354     0.01700
C91         C  0.20588914  0.55745818  0.77104408     0.07700
C92         C  0.19340873  0.55422401  0.78802684    -0.05400
H93         H  0.22038155  0.53429381  0.75081587     0.08400
H94         H  0.18641062  0.56581331  0.79770509     0.09600
Cu95       Cu  0.20279881  0.49241007  0.77331090     0.44200
Cu96       Cu  0.17377627  0.51876664  0.81274439     0.42000
Cu97       Cu  0.17275622  0.46286253  0.80957353     0.43900
N98         N  0.20245943  0.46055760  0.77390622    -0.34000
N99         N  0.19154638  0.44969312  0.78721669    -0.28300
C100        C  0.19527915  0.42959117  0.78406497    -0.04400
C101        C  0.20919893  0.42772567  0.76799179     0.07800
C102        C  0.21338468  0.44768348  0.76192538     0.01600
H103        H  0.18856719  0.41724486  0.79298624     0.09300
H104        H  0.22400259  0.45251742  0.75002815     0.08400
N105        N  0.15561446  0.47989696  0.83058710    -0.35500
N106        N  0.15610233  0.50019145  0.83171006    -0.27700
C107        C  0.14280484  0.50647544  0.84627434    -0.02900
C108        C  0.13348539  0.48934474  0.85475459     0.05700
C109        C  0.14200388  0.47274692  0.84449671     0.03800
H110        H  0.13988945  0.52237702  0.85017238     0.08900
H111        H  0.13820475  0.45669655  0.84662538     0.07700
N112        N  0.79242587  0.45750936  0.19636025    -0.26600
N113        N  0.78293001  0.46805406  0.21096430    -0.34500
C114        C  0.77238254  0.45496229  0.22304655     0.01700
C115        C  0.77529475  0.43528943  0.21559431     0.07700
C116        C  0.78802860  0.43743914  0.19866906    -0.05400
H117        H  0.76320398  0.45943830  0.23620980     0.08400
H118        H  0.79388808  0.42528765  0.18892815     0.09600
Cu119      Cu  0.78439279  0.49975590  0.21369551     0.44200
Cu120      Cu  0.81162590  0.47066302  0.17442889     0.42000
Cu121      Cu  0.81587448  0.52588009  0.17582738     0.43900
N122        N  0.78738603  0.53142025  0.21200237    -0.34000
N123        N  0.79861197  0.54091007  0.19790819    -0.28300
C124        C  0.79666742  0.56132401  0.20033882    -0.04400
C125        C  0.78372406  0.56478060  0.21682229     0.07800
C126        C  0.77807532  0.54556898  0.22388535     0.01600
H127        H  0.80394255  0.57277306  0.19068757     0.09300
H128        H  0.76761332  0.54213656  0.23639270     0.08400
N129        N  0.83257514  0.50758416  0.15587830    -0.35500
N130        N  0.83113266  0.48733353  0.15535102    -0.27700
C131        C  0.84436880  0.48005453  0.14117500    -0.02900
C132        C  0.85460425  0.49654362  0.13234950     0.05700
C133        C  0.84668364  0.51374824  0.14204713     0.03800
H134        H  0.84659631  0.46393168  0.13776326     0.08900
H135        H  0.85088339  0.52960495  0.13928663     0.07700
N136        N  0.19355796  0.44981261  0.19383249    -0.26600
N137        N  0.20379778  0.45941801  0.20855467    -0.34500
C138        C  0.21389510  0.44541866  0.21997859     0.01700
C139        C  0.20987289  0.42612821  0.21197694     0.07700
C140        C  0.19692012  0.42948819  0.19543130    -0.05400
H141        H  0.22391555  0.44905139  0.23277185     0.08400
H142        H  0.19057629  0.41802960  0.18517364     0.09600
Cu143      Cu  0.20487056  0.49118906  0.21141486     0.44200
Cu144      Cu  0.17581196  0.46464722  0.17194192     0.42000
Cu145      Cu  0.17702747  0.51997553  0.17237756     0.43900
N146        N  0.20581554  0.52298335  0.20868188    -0.34000
N147        N  0.19604780  0.53334501  0.19413264    -0.28300
C148        C  0.20028007  0.55346042  0.19615770    -0.04400
C149        C  0.21326410  0.55589898  0.21281988     0.07800
C150        C  0.21644810  0.53628690  0.22043443     0.01600
H151        H  0.19415366  0.56545143  0.18637208     0.09300
H152        H  0.22591378  0.53199577  0.23344962     0.08400
N153        N  0.15830688  0.50305961  0.15296777    -0.35500
N154        N  0.15800634  0.48275505  0.15274076    -0.27700
C155        C  0.14393240  0.47638239  0.13900809    -0.02900
C156        C  0.13485418  0.49350735  0.13021278     0.05700
C157        C  0.14437474  0.51017255  0.13940918     0.03800
H158        H  0.14040010  0.46044072  0.13583945     0.08900
H159        H  0.14109903  0.52627230  0.13679042     0.07700
O160        O  0.01671962  0.50930799  0.97187132    -0.72300
O161        O  0.97197317  0.51089459  0.01462752    -0.73300
O162        O  0.01565463  0.51025910  0.01566140    -0.61900
O163        O  0.97315655  0.50990884  0.97099162    -0.70300
O164        O  0.97213484  0.47579172  0.97229324    -0.69900
O165        O  0.01552978  0.47612166  0.01585295    -0.61100
O166        O  0.97199093  0.47679597  0.01578426    -0.73600
O167        O  0.01579729  0.47524964  0.97232179    -0.72400
Cu168      Cu  0.99440135  0.51130639  0.99326931     1.04600
Cu169      Cu  0.99385384  0.47481412  0.99408935     1.04300
C170        C  0.02318937  0.49199987  0.96517336     0.93900
C171        C  0.96501213  0.49406446  0.02201796     0.93000
C172        C  0.02238416  0.49318764  0.02267901     0.85200
C173        C  0.96585410  0.49279132  0.96475904     0.91500
N174        N  0.44922572  0.78681023  0.79615402    -0.26600
N175        N  0.46062307  0.77463104  0.78446394    -0.34500
C176        C  0.44822204  0.76333349  0.77238840     0.01700
C177        C  0.42801673  0.76850469  0.77667040     0.07700
C178        C  0.42921585  0.78349449  0.79177570    -0.05400
H179        H  0.45353559  0.75191600  0.76150695     0.08400
H180        H  0.41647020  0.79103391  0.79940377     0.09600
Cu181      Cu  0.49249601  0.77273573  0.78565887     0.44200
Cu182      Cu  0.46136914  0.80676256  0.81816144     0.42000
Cu183      Cu  0.51719570  0.80429572  0.82303974     0.43900
N184        N  0.52421764  0.77351511  0.78936686    -0.34000
N185        N  0.53336723  0.78555961  0.80294114    -0.28300
C186        C  0.55390394  0.78346737  0.80112313    -0.04400
C187        C  0.55780812  0.76925537  0.78580210     0.07800
C188        C  0.53867678  0.76322291  0.77867464     0.01600
H189        H  0.56514461  0.79173833  0.81019166     0.09300
H190        H  0.53552553  0.75250923  0.76634364     0.08400
N191        N  0.49847007  0.82271510  0.84112908    -0.35500
N192        N  0.47827083  0.82425502  0.83910988    -0.27700
C193        C  0.47132366  0.83862888  0.85234943    -0.02900
C194        C  0.48795618  0.84642646  0.86330299     0.05700
C195        C  0.50483355  0.83576632  0.85581181     0.03800
H196        H  0.45541305  0.84340546  0.85352739     0.08900
H197        H  0.52071800  0.83754610  0.86047987     0.07700
N198        N  0.53584778  0.19727141  0.79766554    -0.26600
N199        N  0.52562902  0.20725350  0.78316333    -0.34500
C200        C  0.53918517  0.21716313  0.77101465     0.01700
C201        C  0.55888581  0.21324623  0.77820912     0.07700
C202        C  0.55614550  0.20057369  0.79512509    -0.05400
H203        H  0.53499769  0.22670202  0.75802613     0.08400
H204        H  0.56805067  0.19409590  0.80480405     0.09600
Cu205      Cu  0.49367599  0.20719060  0.78073408     0.44200
Cu206      Cu  0.52184764  0.17934975  0.82014639     0.42000
Cu207      Cu  0.46615909  0.17827959  0.81980178     0.43900
N208        N  0.46171467  0.20563125  0.78254027    -0.34000
N209        N  0.45170418  0.19536455  0.79700200    -0.28300
C210        C  0.43131909  0.19794057  0.79427537    -0.04400
C211        C  0.42834635  0.21036919  0.77724351     0.07800
C212        C  0.44793956  0.21493022  0.77017386     0.01600
H213        H  0.41953534  0.19127200  0.80398267     0.09300
H214        H  0.45188806  0.22459640  0.75720091     0.08400
N215        N  0.48401044  0.16117691  0.84003592    -0.35500
N216        N  0.50437966  0.16136176  0.84000253    -0.27700
C217        C  0.51125948  0.14747947  0.85374368    -0.02900
C218        C  0.49440405  0.13822651  0.86292143     0.05700
C219        C  0.47739235  0.14728898  0.85389792     0.03800
H220        H  0.52731933  0.14393111  0.85640511     0.08900
H221        H  0.46140410  0.14343310  0.85656835     0.07700
N222        N  0.45131781  0.79342610  0.19881740    -0.26600
N223        N  0.46178542  0.77836431  0.20761432    -0.34500
C224        C  0.44853392  0.76527697  0.21660866     0.01700
C225        C  0.42878374  0.77248606  0.21339636     0.07700
C226        C  0.43108480  0.79037775  0.20210047    -0.05400
H227        H  0.45297280  0.75175926  0.22523953     0.08400
H228        H  0.41896494  0.80044230  0.19671172     0.09600
Cu229      Cu  0.49359048  0.77663976  0.20787802     0.44200
Cu230      Cu  0.46510561  0.81714447  0.18246500     0.42000
Cu231      Cu  0.52109199  0.81622951  0.18032374     0.43900
N232        N  0.52536790  0.77877096  0.20729770    -0.34000
N233        N  0.53551303  0.79334466  0.19737815    -0.28300
C234        C  0.55583916  0.79055237  0.20028196    -0.04400
C235        C  0.55857406  0.77338046  0.21259529     0.07800
C236        C  0.53891904  0.76632508  0.21675658     0.01600
H237        H  0.56774945  0.80024856  0.19384397     0.09300
H238        H  0.53475372  0.75323512  0.22615420     0.08400
N239        N  0.50290360  0.83666565  0.16374093    -0.35500
N240        N  0.48255932  0.83715719  0.16469140    -0.27700
C241        C  0.47552195  0.85137734  0.15138283    -0.02900
C242        C  0.49221893  0.86020424  0.14151650     0.05700
C243        C  0.50932185  0.85052549  0.14976664     0.03800
H244        H  0.45941084  0.85449186  0.14851733     0.08900
H245        H  0.52524796  0.85304074  0.14556753     0.07700
N246        N  0.45800417  0.19924307  0.19182251    -0.26600
N247        N  0.46856383  0.21263906  0.20285561    -0.34500
C248        C  0.45544848  0.22397349  0.21412903     0.01700
C249        C  0.43565582  0.21736222  0.21000453     0.07700
C250        C  0.43782028  0.20165644  0.19580417    -0.05400
H251        H  0.46000631  0.23594032  0.22474767     0.08400
H252        H  0.42564393  0.19263591  0.18891980     0.09600
Cu253      Cu  0.50027786  0.21444302  0.20242776     0.44200
Cu254      Cu  0.47184873  0.17822496  0.17225203     0.42000
Cu255      Cu  0.52801244  0.17883455  0.16934754     0.43900
N256        N  0.53197605  0.21317035  0.20053983    -0.34000
N257        N  0.54230851  0.20021300  0.18872075    -0.28300
C258        C  0.56261539  0.20301072  0.19199144    -0.04400
C259        C  0.56505356  0.21850093  0.20646308     0.07800
C260        C  0.54530307  0.22453756  0.21150580     0.01600
H261        H  0.57470473  0.19426700  0.18459435     0.09300
H262        H  0.54090501  0.23600590  0.22273568     0.08400
N263        N  0.50929903  0.15854879  0.15273775    -0.35500
N264        N  0.48896484  0.15840480  0.15403501    -0.27700
C265        C  0.48147034  0.14344512  0.14189149    -0.02900
C266        C  0.49778285  0.13362002  0.13234501     0.05700
C267        C  0.51521811  0.14362059  0.13961247     0.03800
H268        H  0.46528587  0.13985667  0.14029454     0.08900
H269        H  0.53104335  0.14032008  0.13559547     0.07700
O270        O  0.47433898  0.97060114  0.97415998    -0.72300
O271        O  0.47690892  0.01490108  0.01741580    -0.73300
O272        O  0.47621550  0.01449073  0.97358201    -0.61900
O273        O  0.47496975  0.97142530  0.01803937    -0.70300
O274        O  0.50913286  0.97079613  0.01832319    -0.69900
O275        O  0.51006391  0.01212945  0.97224970    -0.61100
O276        O  0.51101251  0.01418553  0.01630135    -0.73600
O277        O  0.50844917  0.96838360  0.97473100    -0.72400
Cu278      Cu  0.47442268  0.99291877  0.99575432     1.04600
Cu279      Cu  0.51084000  0.99135472  0.99531057     1.04300
C280        C  0.49104210  0.96220817  0.96798749     0.93900
C281        C  0.49433349  0.02133813  0.02393052     0.93000
C282        C  0.49333465  0.02021288  0.96572753     0.85200
C283        C  0.49186985  0.96460015  0.02546000     0.91500
C284        C  0.27341163  0.29498295  0.26601718     0.03800
C285        C  0.26384897  0.28515322  0.28271766    -0.12400
C286        C  0.27411662  0.26948986  0.29362795     0.01300
C287        C  0.29376685  0.26331757  0.28691572    -0.10900
C288        C  0.30259898  0.27190990  0.26923895     0.03800
C289        C  0.29254319  0.28794120  0.25901387    -0.10300
H290        H  0.24867810  0.29017479  0.28753792     0.09400
H291        H  0.30217353  0.25159657  0.29526295     0.06900
H292        H  0.29973554  0.29512911  0.24577894     0.06700
N293        N  0.78082853  0.80427263  0.45484407    -0.26600
N294        N  0.76855607  0.79173561  0.46518452    -0.34500
C295        C  0.75784845  0.78016475  0.45180916     0.01700
C296        C  0.76357509  0.78575510  0.43213305     0.07700
C297        C  0.77815060  0.80105268  0.43454059    -0.05400
H298        H  0.74701979  0.76827548  0.45610179     0.08400
H299        H  0.78660633  0.80881595  0.42247072     0.09600
Cu300      Cu  0.76753562  0.78994041  0.49696041     0.44200
Cu301      Cu  0.80177903  0.82397505  0.46893619     0.42000
Cu302      Cu  0.80460927  0.82075005  0.52468913     0.43900
N303        N  0.76990875  0.79010181  0.52871752    -0.34000
N304        N  0.78327783  0.80154664  0.53892193    -0.28300
C305        C  0.78079900  0.79824145  0.55922541    -0.04400
C306        C  0.76524246  0.78394966  0.56185167     0.07800
C307        C  0.75869315  0.77909636  0.54220825     0.01600
H308        H  0.78979347  0.80552638  0.57118752     0.09300
H309        H  0.74663175  0.76841924  0.53803010     0.08400
N310        N  0.82434328  0.83868418  0.50689749    -0.35500
N311        N  0.82301023  0.84018169  0.48663867    -0.27700
C312        C  0.83778416  0.85301436  0.47985211    -0.02900
C313        C  0.84913623  0.85987683  0.49658426     0.05700
C314        C  0.84011282  0.85040474  0.51348014     0.03800
H315        H  0.84008176  0.85707081  0.46386163     0.08900
H316        H  0.84479888  0.85173763  0.52940145     0.07700
N317        N  0.19476897  0.79095679  0.45343974    -0.26600
N318        N  0.20819267  0.78036556  0.46445516    -0.34500
C319        C  0.21936171  0.76843688  0.45171915     0.01700
C320        C  0.21263002  0.77170841  0.43172277     0.07700
C321        C  0.19701400  0.78608273  0.43344303    -0.05400
H322        H  0.23155795  0.75822141  0.45662896     0.08400
H323        H  0.18818672  0.79280912  0.42102602     0.09600
Cu324      Cu  0.21061933  0.78305705  0.49628604     0.44200
Cu325      Cu  0.17428418  0.81180856  0.46611321     0.42000
Cu326      Cu  0.17241928  0.81551429  0.52175542     0.43900
N327        N  0.20904106  0.78751335  0.52796993    -0.34000
N328        N  0.19484887  0.79878186  0.53728318    -0.28300
C329        C  0.19748446  0.79734714  0.55780187    -0.04400
C330        C  0.21423705  0.78475220  0.56151724     0.07800
C331        C  0.22117255  0.77879587  0.54230601     0.01600
H332        H  0.18774058  0.80464949  0.56916258     0.09300
H333        H  0.23367029  0.76829741  0.53901973     0.08400
N334        N  0.15352618  0.83238420  0.50219856    -0.35500
N335        N  0.15466461  0.83133685  0.48189214    -0.27700
C336        C  0.14137824  0.84487204  0.47363703    -0.02900
C337        C  0.13130192  0.85482442  0.48948965     0.05700
C338        C  0.13931209  0.84653203  0.50739878     0.03800
H339        H  0.13929933  0.84737388  0.45730235     0.08900
H340        H  0.13547178  0.85083475  0.52302169     0.07700
N341        N  0.79404100  0.19716833  0.45478095    -0.26600
N342        N  0.77913241  0.20647600  0.46508122    -0.34500
C343        C  0.76733968  0.21708451  0.45176404     0.01700
C344        C  0.77526681  0.21443271  0.43218020     0.07700
C345        C  0.79219879  0.20175016  0.43464991    -0.05400
H346        H  0.75420977  0.22637975  0.45606606     0.08400
H347        H  0.80241602  0.19625998  0.42269380     0.09600
Cu348      Cu  0.77598390  0.20528494  0.49689495     0.44200
Cu349      Cu  0.81605412  0.17839445  0.46849162     0.42000
Cu350      Cu  0.81243566  0.17319291  0.52387239     0.43900
N351        N  0.77745855  0.20315429  0.52877928    -0.34000
N352        N  0.79100839  0.19156661  0.53858655    -0.28300
C353        C  0.78860014  0.19407110  0.55899030    -0.04400
C354        C  0.77272270  0.20784982  0.56219095     0.07800
C355        C  0.76597609  0.21329172  0.54272365     0.01600
H356        H  0.79777322  0.18647174  0.57062883     0.09300
H357        H  0.75386557  0.22408600  0.53897993     0.08400
N358        N  0.83293648  0.15670491  0.50593991    -0.35500
N359        N  0.83454355  0.15878591  0.48575639    -0.27700
C360        C  0.84897754  0.14567284  0.47880085    -0.02900
C361        C  0.85675606  0.13475555  0.49540118     0.05700
C362        C  0.84621410  0.14219722  0.51234953     0.03800
H363        H  0.85328344  0.14400490  0.46279614     0.08900
H364        H  0.84773323  0.13711540  0.52813764     0.07700
N365        N  0.19723248  0.19019782  0.53182630    -0.26600
N366        N  0.21374895  0.19648296  0.52167571    -0.34500
C367        C  0.22659006  0.20594632  0.53490577     0.01700
C368        C  0.21782297  0.20562815  0.55437032     0.07700
C369        C  0.19920878  0.19548475  0.55178400    -0.05400
H370        H  0.24101368  0.21305279  0.53056078     0.08400
H371        H  0.18786201  0.19227612  0.56355545     0.09600
Cu372      Cu  0.21740365  0.19364850  0.48992786     0.44200
Cu373      Cu  0.17237767  0.17520512  0.51797592     0.42000
Cu374      Cu  0.17131886  0.17820247  0.46271269     0.43900
N375        N  0.21400916  0.19568260  0.45812681    -0.34000
N376        N  0.19645253  0.19186188  0.44864313    -0.28300
C377        C  0.19803637  0.19768333  0.42886525    -0.04400
C378        C  0.21777166  0.20515277  0.42536231     0.07800
C379        C  0.22747182  0.20339597  0.44439791     0.01600
H380        H  0.18542110  0.19701213  0.41803900     0.09300
H381        H  0.24307940  0.20770279  0.44821820     0.08400
N382        N  0.14998037  0.16159857  0.47961556    -0.35500
N383        N  0.15035492  0.16028594  0.49992460    -0.27700
C384        C  0.13562278  0.14703223  0.50602621    -0.02900
C385        C  0.12553678  0.13964985  0.48870823     0.05700
C386        C  0.13506593  0.14927033  0.47226518     0.03800
H387        H  0.13292096  0.14253683  0.52183618     0.08900
H388        H  0.13203548  0.14674204  0.45608678     0.07700
O389        O  0.01508151  0.01643973  0.50206889    -0.72300
O390        O  0.97324622  0.97087890  0.50414743    -0.73300
O391        O  0.01680728  0.97277961  0.50112131    -0.61900
O392        O  0.97163761  0.01449801  0.50510852    -0.70300
O393        O  0.96993846  0.01578875  0.47098157    -0.69900
O394        O  0.01438291  0.97299676  0.46708862    -0.61100
O395        O  0.97037108  0.97205392  0.47010867    -0.73600
O396        O  0.01345339  0.01667894  0.46794575    -0.72400
Cu397      Cu  0.99428953  0.99358054  0.50427942     1.04600
Cu398      Cu  0.99195242  0.99434039  0.46782726     1.04300
C399        C  0.02075570  0.02386381  0.48473770     0.93900
C400        C  0.96497777  0.96450842  0.48748443     0.93000
C401        C  0.02285035  0.96632462  0.48355160     0.85200
C402        C  0.96389580  0.02196401  0.48865491     0.91500
C403        C  0.09877837  0.08782718  0.49534072    -0.04800
C404        C  0.07999022  0.09115678  0.48490827     0.09300
C405        C  0.07615395  0.11046483  0.47572579    -0.02200
C406        C  0.09093868  0.12635213  0.47707275    -0.00500
C407        C  0.10971604  0.12306276  0.48762392    -0.04100
C408        C  0.11359180  0.10365017  0.49663841     0.02900
C409        C  0.06417231  0.07432915  0.48394446     0.09800
C410        C  0.05693242  0.11395765  0.46490347     0.35700
C411        C  0.13316510  0.09962866  0.50662000     0.39100
C412        C  0.04649215  0.07517974  0.49658666    -0.04400
C413        C  0.03214575  0.05888128  0.49651111     0.02700
C414        C  0.03562126  0.04128620  0.48419797    -0.04100
C415        C  0.05319397  0.04055839  0.47133757    -0.00300
C416        C  0.06720303  0.05717497  0.47095815    -0.02800
C417        C  0.04309587  0.09286412  0.50974604     0.36400
C418        C  0.05735410  0.02236514  0.45911897     0.40000
C419        C  0.01343338  0.06055406  0.50863197     0.39200
C420        C  0.08474451  0.05671166  0.45712764     0.36100
C421        C  0.10286664  0.06802478  0.50476936     0.36800
C422        C  0.08656762  0.14625609  0.46800263     0.40000
N423        N  0.99843778  0.06190407  0.51817954    -0.38000
N424        N  0.04036435  0.10703362  0.52015631    -0.39600
N425        N  0.06073124  0.00779331  0.44947793    -0.37400
N426        N  0.09870348  0.05642587  0.44604311    -0.39800
N427        N  0.04153826  0.11673374  0.45636989    -0.39500
N428        N  0.08305381  0.16213093  0.46076456    -0.37200
N429        N  0.14880410  0.09642332  0.51453649    -0.38200
N430        N  0.10614181  0.05218911  0.51219746    -0.39900
C431        C  0.88495667  0.08552227  0.48053148    -0.04800
C432        C  0.90180794  0.08587294  0.49418960     0.09300
C433        C  0.90377322  0.10205661  0.50847857    -0.02200
C434        C  0.88919401  0.11813992  0.50877984    -0.00500
C435        C  0.87226327  0.11788597  0.49504436    -0.04100
C436        C  0.87010432  0.10132103  0.48108711     0.02900
C437        C  0.91786055  0.06944694  0.49304741     0.09800
C438        C  0.92090025  0.10213600  0.52281647     0.35700
C439        C  0.85225621  0.10006496  0.46772582     0.39100
C440        C  0.93598829  0.07281874  0.48155545    -0.04400
C441        C  0.95092237  0.05718572  0.47989513     0.02700
C442        C  0.94798066  0.03821296  0.49009345    -0.04100
C443        C  0.92993832  0.03495127  0.50183229    -0.00300
C444        C  0.91478707  0.05044293  0.50305808    -0.02800
C445        C  0.93920153  0.09242843  0.47141246     0.36400
C446        C  0.92670085  0.01545552  0.51220096     0.40000
C447        C  0.96956807  0.06085471  0.46811413     0.39200
C448        C  0.89587552  0.04677661  0.51436650     0.36100
C449        C  0.88299620  0.06885557  0.46583379     0.36800
C450        C  0.89212845  0.13529765  0.52272735     0.40000
N451        N  0.98442228  0.06376009  0.45869331    -0.38000
N452        N  0.94173344  0.10811943  0.46340720    -0.39600
N453        N  0.92417698  0.99990392  0.52048387    -0.37400
N454        N  0.88070762  0.04381504  0.52324929    -0.39800
N455        N  0.93454806  0.10213232  0.53426920    -0.39500
N456        N  0.89454204  0.14898923  0.53383438    -0.37200
N457        N  0.83800378  0.09900178  0.45708798    -0.38200
N458        N  0.88150345  0.05553424  0.45413365    -0.39900
C459        C  0.07198705  0.93702917  0.49659240    -0.04800
C460        C  0.07101072  0.92044129  0.48266617     0.09300
C461        C  0.05502438  0.91965558  0.46799003    -0.02200
C462        C  0.03925177  0.93458686  0.46816139    -0.00500
C463        C  0.03990396  0.95101798  0.48245448    -0.04100
C464        C  0.05683317  0.95253700  0.49613229     0.02900
C465        C  0.08646698  0.90341463  0.48394895     0.09800
C466        C  0.05485127  0.90338701  0.45272555     0.35700
C467        C  0.05913500  0.97040798  0.50930305     0.39100
C468        C  0.08090052  0.88444055  0.49293960    -0.04400
C469        C  0.09556476  0.86855552  0.49478942     0.02700
C470        C  0.11587198  0.87153113  0.48760151    -0.04100
C471        C  0.12138844  0.89045048  0.47843985    -0.00300
C472        C  0.10672018  0.90633843  0.47661174    -0.02800
C473        C  0.06003253  0.88131056  0.50030267     0.36400
C474        C  0.14233404  0.89379324  0.47141270     0.40000
C475        C  0.08960178  0.84896017  0.50362697     0.39200
C476        C  0.11244151  0.92574919  0.46722691     0.36100
C477        C  0.08850725  0.93799184  0.51159976     0.36800
C478        C  0.02199272  0.93243849  0.45415307     0.40000
N479        N  0.08481654  0.83331538  0.51063238    -0.38000
N480        N  0.04333684  0.87885024  0.50604311    -0.39600
N481        N  0.15905874  0.89645091  0.46584813    -0.37400
N482        N  0.11699719  0.94127617  0.45981834    -0.39800
N483        N  0.05483419  0.89045935  0.44049646    -0.39500
N484        N  0.00821274  0.93065320  0.44300134    -0.37200
N485        N  0.06104672  0.98473960  0.51967399    -0.38200
N486        N  0.10169713  0.93874067  0.52355147    -0.39900
C487        C  0.93705035  0.91435952  0.49953549    -0.04800
C488        C  0.91699818  0.91866200  0.49228247     0.09300
C489        C  0.91289954  0.93786389  0.48297922    -0.02200
C490        C  0.92867726  0.95268341  0.48102981    -0.00500
C491        C  0.94868925  0.94846422  0.48847332    -0.04100
C492        C  0.95285587  0.92916492  0.49756141     0.02900
C493        C  0.90017016  0.90291343  0.49417349     0.09800
C494        C  0.89233480  0.94239699  0.47553690     0.35700
C495        C  0.97360370  0.92430118  0.50426902     0.39100
C496        C  0.88479428  0.90499814  0.50940109    -0.04400
C497        C  0.86819707  0.89096637  0.51031342     0.02700
C498        C  0.86709947  0.87431229  0.49629183    -0.04100
C499        C  0.88309579  0.87176587  0.48165126    -0.00300
C500        C  0.89931171  0.88618593  0.48039026    -0.02800
C501        C  0.88603378  0.92174525  0.52408297     0.36400
C502        C  0.88335957  0.85392717  0.46826567     0.40000
C503        C  0.85188801  0.89427887  0.52521869     0.39200
C504        C  0.91506783  0.88396838  0.46470204     0.36100
C505        C  0.94134451  0.89471557  0.50917416     0.36800
C506        C  0.92415014  0.97250852  0.47184677     0.40000
N507        N  0.83890754  0.89698846  0.53713501    -0.38000
N508        N  0.88706536  0.93509954  0.53579687    -0.39600
N509        N  0.88366267  0.83966238  0.45763261    -0.37400
N510        N  0.92765223  0.88223902  0.45219723    -0.39800
N511        N  0.87587986  0.94599170  0.46971984    -0.39500
N512        N  0.92054857  0.98832144  0.46451597    -0.37200
N513        N  0.99020467  0.92042591  0.50946655    -0.38200
N514        N  0.94473519  0.87901843  0.51684314    -0.39900
C515        C  0.22583974  0.21635792  0.36793648    -0.04800
C516        C  0.24109936  0.23181072  0.36842605     0.09300
C517        C  0.24895073  0.23826234  0.38764515    -0.02200
C518        C  0.24044127  0.23062866  0.40612241    -0.00500
C519        C  0.22612628  0.21413251  0.40572627    -0.04100
C520        C  0.21953786  0.20658057  0.38629204     0.02900
C521        C  0.24884129  0.24138149  0.34879276     0.09800
C522        C  0.26592261  0.25277281  0.38846194     0.35700
C523        C  0.20701094  0.18818874  0.38479470     0.39100
C524        C  0.24661200  0.26272607  0.34535662    -0.04400
C525        C  0.25596187  0.27205364  0.32812694     0.02700
C526        C  0.26468664  0.25978294  0.31233700    -0.04100
C527        C  0.26497452  0.23813492  0.31488232    -0.00300
C528        C  0.25869037  0.22924739  0.33366056    -0.02800
C529        C  0.23460796  0.27515258  0.35951595     0.36400
C530        C  0.27106603  0.22481059  0.29802206     0.40000
C531        C  0.25757121  0.29428935  0.32743270     0.39200
C532        C  0.26286259  0.20767779  0.33755107     0.36100
C533        C  0.21637426  0.21062614  0.34851861     0.36800
C534        C  0.24563905  0.24086984  0.42525220     0.40000
N535        N  0.25902966  0.31201214  0.32698432    -0.38000
N536        N  0.22495418  0.28504565  0.37074892    -0.39600
N537        N  0.27577123  0.21417683  0.28453460    -0.37400
N538        N  0.26627377  0.19050008  0.34068170    -0.39800
N539        N  0.27946567  0.26431500  0.38909243    -0.39500
N540        N  0.24972673  0.24936356  0.44036189    -0.37200
N541        N  0.19716825  0.17342906  0.38337117    -0.38200
N542        N  0.20884351  0.20607535  0.33303161    -0.39900
C543        C  0.39280269  0.25368435  0.22647670    -0.04800
C544        C  0.37938254  0.24010182  0.23678882     0.09300
C545        C  0.38454350  0.21913483  0.23861472    -0.02200
C546        C  0.40287142  0.21164343  0.22972943    -0.00500
C547        C  0.41629649  0.22519444  0.21925370    -0.04100
C548        C  0.41128601  0.24629784  0.21784222     0.02900
C549        C  0.35958073  0.24789483  0.24544053     0.09800
C550        C  0.37107347  0.20536884  0.24991235     0.35700
C551        C  0.42483519  0.26036868  0.20702372     0.39100
C552        C  0.34109728  0.24509985  0.23439193    -0.04400
C553        C  0.32244056  0.25278015  0.24231930     0.02700
C554        C  0.32227872  0.26371692  0.26109914    -0.04100
C555        C  0.34078275  0.26651829  0.27214585    -0.00300
C556        C  0.35936001  0.25836536  0.26445540    -0.02800
C557        C  0.34133751  0.23436338  0.21482242     0.36400
C558        C  0.34075806  0.27818062  0.29117171     0.40000
C559        C  0.30331740  0.24906856  0.23137643     0.39200
C560        C  0.37826553  0.26059342  0.27611802     0.36100
C561        C  0.38743939  0.27525855  0.22464354     0.36800
C562        C  0.40818838  0.19010120  0.23195135     0.40000
N563        N  0.28802232  0.24609343  0.22273868    -0.38000
N564        N  0.34155427  0.22578988  0.19921748    -0.39600
N565        N  0.34069703  0.28755021  0.30631142    -0.37400
N566        N  0.39336705  0.26226555  0.28541948    -0.39800
N567        N  0.36033040  0.19444428  0.25899578    -0.39500
N568        N  0.41242688  0.17291479  0.23372609    -0.37200
N569        N  0.43563773  0.27163447  0.19844088    -0.38200
N570        N  0.38311139  0.29245749  0.22325732    -0.39900
C571        C  0.50808876  0.08193567  0.10624810    -0.04800
C572        C  0.49511076  0.08316378  0.08889015     0.09300
C573        C  0.48238768  0.10052169  0.08621825    -0.02200
C574        C  0.48321814  0.11697289  0.10036340    -0.00500
C575        C  0.49666349  0.11609028  0.11752387    -0.04100
C576        C  0.50885072  0.09828676  0.12054214     0.02900
C577        C  0.49554411  0.06667563  0.07277388     0.09800
C578        C  0.46850843  0.10144807  0.06874202     0.35700
C579        C  0.52173603  0.09644150  0.13868046     0.39100
C580        C  0.48178486  0.04995090  0.07375408    -0.04400
C581        C  0.48182163  0.03487561  0.05811110     0.02700
C582        C  0.49509488  0.03683614  0.04087697    -0.04100
C583        C  0.50912407  0.05348614  0.04016544    -0.00300
C584        C  0.50949796  0.06814937  0.05618843    -0.02800
C585        C  0.46755790  0.04830047  0.09089257     0.36400
C586        C  0.52279961  0.05603766  0.02270237     0.40000
C587        C  0.46883137  0.01685345  0.06028825     0.39200
C588        C  0.52423016  0.08490432  0.05565307     0.36100
C589        C  0.52060546  0.06374199  0.10938153     0.36800
C590        C  0.47074981  0.13511078  0.09670015     0.40000
N591        N  0.45863934  0.00236712  0.06204903    -0.38000
N592        N  0.45614781  0.04699759  0.10452542    -0.39600
N593        N  0.53378522  0.05827735  0.00885102    -0.37400
N594        N  0.53602304  0.09823347  0.05539651    -0.39800
N595        N  0.45739096  0.10207847  0.05483564    -0.39500
N596        N  0.46076790  0.14954618  0.09371518    -0.37200
N597        N  0.53198661  0.09493562  0.15317534    -0.38200
N598        N  0.53052514  0.04917511  0.11187694    -0.39900
C599        C  0.50424736  0.93789121  0.07620708    -0.04800
C600        C  0.49143334  0.92040597  0.07516125     0.09300
C601        C  0.47851986  0.91758134  0.05791033    -0.02200
C602        C  0.47873741  0.93190799  0.04158650    -0.00500
C603        C  0.49150431  0.94948510  0.04264262    -0.04100
C604        C  0.50399650  0.95257814  0.06021707     0.02900
C605        C  0.49155611  0.90490161  0.09224243     0.09800
C606        C  0.46499089  0.89986887  0.05700105     0.35700
C607        C  0.51594219  0.97131282  0.06230548     0.39100
C608        C  0.48144901  0.90915993  0.11101692    -0.04400
C609        C  0.48155936  0.89454520  0.12709274     0.02700
C610        C  0.49179637  0.87553446  0.12450056    -0.04100
C611        C  0.50163655  0.87118270  0.10555748    -0.00300
C612        C  0.50166219  0.88588063  0.08958095    -0.02800
C613        C  0.47096804  0.92865851  0.11376902     0.36400
C614        C  0.51102134  0.85123660  0.10212767     0.40000
C615        C  0.47150026  0.89931202  0.14645947     0.39200
C616        C  0.51214026  0.88146868  0.07034780     0.36100
C617        C  0.51780984  0.94067123  0.09372780     0.36800
C618        C  0.46628669  0.92816917  0.02342700     0.40000
N619        N  0.46343769  0.90312700  0.16188898    -0.38000
N620        N  0.46270637  0.94426866  0.11594613    -0.39600
N621        N  0.51840441  0.83528395  0.09936053    -0.37400
N622        N  0.52045595  0.87795660  0.05498204    -0.39800
N623        N  0.45422401  0.88571638  0.05632307    -0.39500
N624        N  0.45641910  0.92516502  0.00890321    -0.37200
N625        N  0.52531258  0.98634248  0.06402786    -0.38200
N626        N  0.52863696  0.94283911  0.10770585    -0.39900
C627        C  0.51208430  0.06410300  0.93059995    -0.04800
C628        C  0.49401103  0.06909689  0.91974104     0.09300
C629        C  0.47594758  0.05763368  0.92316225    -0.02200
C630        C  0.47580519  0.04134741  0.93757685    -0.00500
C631        C  0.49377774  0.03659596  0.94925274    -0.04100
C632        C  0.51202948  0.04813280  0.94534975     0.02900
C633        C  0.49392097  0.08683001  0.90498337     0.09800
C634        C  0.45737309  0.06279577  0.91184437     0.35700
C635        C  0.53085937  0.04422770  0.95671312     0.39100
C636        C  0.50219007  0.08456323  0.88500809    -0.04400
C637        C  0.50256675  0.10143041  0.87134281     0.02700
C638        C  0.49443469  0.12062160  0.87748552    -0.04100
C639        C  0.48592798  0.12281261  0.89738253    -0.00300
C640        C  0.48577861  0.10599854  0.91112092    -0.02800
C641        C  0.51007004  0.06476354  0.87845447     0.36400
C642        C  0.47775120  0.14251035  0.90390110     0.40000
C643        C  0.51076879  0.09886341  0.85072025     0.39200
C644        C  0.47733597  0.10838984  0.93166203     0.36100
C645        C  0.53077246  0.07574364  0.92675218     0.36800
C646        C  0.45704587  0.02944712  0.93987353     0.40000
N647        N  0.51727807  0.09687602  0.83424840    -0.38000
N648        N  0.51633239  0.04895832  0.87320808    -0.39600
N649        N  0.47124199  0.15822686  0.90912022    -0.37400
N650        N  0.47057008  0.11020607  0.94804897    -0.39800
N651        N  0.44256964  0.06704571  0.90288440    -0.39500
N652        N  0.44198993  0.02006637  0.94153325    -0.37200
N653        N  0.54600266  0.04121910  0.96561191    -0.38200
N654        N  0.54566533  0.08498946  0.92358779    -0.39900
C655        C  0.48141106  0.93147429  0.91901899    -0.04800
C656        C  0.48956914  0.91210583  0.92443042     0.09300
C657        C  0.49824532  0.90921331  0.94413778    -0.02200
C658        C  0.49840110  0.92550260  0.95850079    -0.00500
C659        C  0.49030162  0.94493844  0.95305972    -0.04100
C660        C  0.48188598  0.94786856  0.93322683     0.02900
C661        C  0.48935624  0.89490734  0.90909198     0.09800
C662        C  0.50738445  0.88957521  0.94943878     0.35700
C663        C  0.47453277  0.96798055  0.92706479     0.39100
C664        C  0.50434142  0.89418413  0.89341423    -0.04400
C665        C  0.50345681  0.87883413  0.87811430     0.02700
C666        C  0.48812393  0.86331976  0.87893456    -0.04100
C667        C  0.47328251  0.86393456  0.89494454    -0.00300
C668        C  0.47375543  0.87984439  0.90974816    -0.02800
C669        C  0.52072535  0.90934384  0.89306505     0.36400
C670        C  0.45779273  0.84797024  0.89664805     0.40000
C671        C  0.51780207  0.87977365  0.86100126     0.39200
C672        C  0.45810597  0.88084915  0.92566612     0.36100
C673        C  0.47282816  0.93456336  0.89863231     0.36800
C674        C  0.50647586  0.92212454  0.97905626     0.40000
N675        N  0.52921168  0.88064862  0.84732967    -0.38000
N676        N  0.53383652  0.92138485  0.89287050    -0.39600
N677        N  0.44538302  0.83528546  0.89810548    -0.37400
N678        N  0.44562366  0.88173883  0.93836129    -0.39800
N679        N  0.51479229  0.87393674  0.95359567    -0.39500
N680        N  0.51282503  0.91942093  0.99548470    -0.37200
N681        N  0.46880218  0.98401100  0.92191279    -0.38200
N682        N  0.46608734  0.93694488  0.88231387    -0.39900
C683        C  0.22473156  0.38114323  0.24634153    -0.04800
C684        C  0.23636136  0.36896462  0.23264491     0.09300
C685        C  0.23891048  0.37526522  0.21202944    -0.02200
C686        C  0.23007139  0.39385026  0.20517474    -0.00500
C687        C  0.21862177  0.40622728  0.21895413    -0.04100
C688        C  0.21584258  0.39969788  0.23952462     0.02900
C689        C  0.24633753  0.34971124  0.24021816     0.09800
C690        C  0.25091730  0.36273323  0.19798965     0.35700
C691        C  0.20334527  0.41175286  0.25356013     0.39100
C692        C  0.23658457  0.33053595  0.23744628    -0.04400
C693        C  0.24554356  0.31252627  0.24558296     0.02700
C694        C  0.26414783  0.31369830  0.25676259    -0.04100
C695        C  0.27395877  0.33291932  0.25938461    -0.00300
C696        C  0.26520013  0.35081796  0.25090431    -0.02800
C697        C  0.21723971  0.32944165  0.22636334     0.36400
C698        C  0.29275435  0.33438352  0.27138651     0.40000
C699        C  0.23577855  0.29276857  0.24225765     0.39200
C700        C  0.27552169  0.37045337  0.25322794     0.36100
C701        C  0.22197668  0.37450748  0.26749656     0.36800
C702        C  0.23341692  0.40055213  0.18412897     0.40000
N703        N  0.22803013  0.27697939  0.23959311    -0.38000
N704        N  0.20180639  0.32864459  0.21749880    -0.39600
N705        N  0.30771102  0.33548867  0.28100604    -0.37400
N706        N  0.28376357  0.38611810  0.25500820    -0.39800
N707        N  0.26048428  0.35271200  0.18679751    -0.43000
N708        N  0.23609148  0.40590223  0.16734137    -0.37200
N709        N  0.19331792  0.42130400  0.26476366    -0.38200
N710        N  0.21987170  0.36914546  0.28435899    -0.39900
C711        C  0.05116228  0.50404430  0.07241051    -0.04800
C712        C  0.06961801  0.49305838  0.06908479     0.09300
C713        C  0.07232194  0.48175200  0.05075450    -0.02200
C714        C  0.05687202  0.48185454  0.03555279    -0.00500
C715        C  0.03851947  0.49308920  0.03872528    -0.04100
C716        C  0.03559651  0.50400434  0.05729299     0.02900
C717        C  0.08628064  0.49338757  0.08491795     0.09800
C718        C  0.09097664  0.46987737  0.04764173     0.35700
C719        C  0.01626899  0.51452298  0.06118768     0.39100
C720        C  0.08444611  0.48136981  0.10288754    -0.04400
C721        C  0.09999043  0.48194364  0.11799799     0.02700
C722        C  0.11796861  0.49381577  0.11477643    -0.04100
C723        C  0.11985190  0.50569805  0.09662233    -0.00300
C724        C  0.10392019  0.50567653  0.08188414    -0.02800
C725        C  0.06662994  0.46819672  0.10565943     0.36400
C726        C  0.13844288  0.51742711  0.09269049     0.40000
C727        C  0.09700504  0.47096251  0.13721726     0.39200
C728        C  0.10569174  0.51818692  0.06346350     0.36100
C729        C  0.04816842  0.51523451  0.09149286     0.36800
C730        C  0.06009493  0.47080240  0.01640764     0.40000
N731        N  0.09452407  0.46232358  0.15260131    -0.38000
N732        N  0.05244529  0.45763882  0.10777478    -0.39600
N733        N  0.15327061  0.52676684  0.08948590    -0.37400
N734        N  0.10706492  0.52811236  0.04873489    -0.39800
N735        N  0.10585032  0.46038784  0.04518078    -0.39500
N736        N  0.06258723  0.46201516  0.00111851    -0.37200
N737        N  0.00080354  0.52279996  0.06433035    -0.38200
N738        N  0.04578081  0.52403055  0.10679157    -0.39900
C739        C  0.90483787  0.50620234  0.10345032    -0.04800
C740        C  0.90147412  0.49514184  0.08507791     0.09300
C741        C  0.88280389  0.48441230  0.08227321    -0.02200
C742        C  0.86748554  0.48486851  0.09768192    -0.00500
C743        C  0.87080190  0.49595242  0.11612441    -0.04100
C744        C  0.88961650  0.50657357  0.11894481     0.02900
C745        C  0.91771244  0.49474742  0.06870612     0.09800
C746        C  0.87938996  0.47286982  0.06347826     0.35700
C747        C  0.89368988  0.51740050  0.13803718     0.39100
C748        C  0.93559333  0.48270708  0.07139738    -0.04400
C749        C  0.95122161  0.48283240  0.05632701     0.02700
C750        C  0.94877970  0.49448618  0.03810860    -0.04100
C751        C  0.93073925  0.50633933  0.03529942    -0.00300
C752        C  0.91538119  0.50665583  0.05067540    -0.02800
C753        C  0.93788101  0.47016853  0.08973232     0.36400
C754        C  0.92763584  0.51770380  0.01631996     0.40000
C755        C  0.97019198  0.47160484  0.05998347     0.39200
C756        C  0.89716829  0.51930002  0.04801914     0.36100
C757        C  0.92408134  0.51714827  0.10641122     0.36800
C758        C  0.84804657  0.47445468  0.09418392     0.40000
N759        N  0.98539418  0.46278603  0.06290907    -0.38000
N760        N  0.93968399  0.46018784  0.10437424    -0.39600
N761        N  0.92512574  0.52669496  0.00114520    -0.37400
N762        N  0.88261124  0.52935331  0.04593807    -0.39800
N763        N  0.87665622  0.46372176  0.04845184    -0.39500
N764        N  0.83254011  0.46615011  0.09138169    -0.37200
N765        N  0.89700515  0.52606417  0.15323636    -0.38200
N766        N  0.93949787  0.52575186  0.10876072    -0.39900
C767        C  0.08298914  0.49998339  0.88267084    -0.04800
C768        C  0.08589857  0.48902671  0.90117986     0.09300
C769        C  0.10422382  0.47780345  0.90429542    -0.02200
C770        C  0.11972659  0.47773973  0.88906226    -0.00500
C771        C  0.11700089  0.48899458  0.87063732    -0.04100
C772        C  0.09851353  0.50006343  0.86747786     0.02900
C773        C  0.06980666  0.48972274  0.91764826     0.09800
C774        C  0.10712518  0.46644862  0.92329866     0.35700
C775        C  0.09522312  0.51120566  0.84840438     0.39100
C776        C  0.05280652  0.47628814  0.91690961    -0.04400
C777        C  0.03748400  0.47716669  0.93229128     0.02700
C778        C  0.03926707  0.49128367  0.94880647    -0.04100
C779        C  0.05645231  0.50467520  0.94951964    -0.00300
C780        C  0.07155240  0.50396760  0.93390229    -0.02800
C781        C  0.05111482  0.46155971  0.90023764     0.36400
C782        C  0.05904566  0.51878298  0.96661523     0.40000
C783        C  0.01952025  0.46400512  0.93062019     0.39200
C784        C  0.08898335  0.51790479  0.93448409     0.36100
C785        C  0.06395797  0.51117376  0.87930664     0.36800
C786        C  0.13878923  0.46670160  0.89271707     0.40000
N787        N  0.00516281  0.45355369  0.92928697    -0.38000
N788        N  0.04979537  0.44980053  0.88694374    -0.39600
N789        N  0.06117811  0.53004030  0.98023871    -0.37400
N790        N  0.10291728  0.52898411  0.93484656    -0.39800
N791        N  0.10938824  0.45742992  0.93849250    -0.39500
N792        N  0.15401041  0.45792263  0.89565899    -0.37200
N793        N  0.09261800  0.52012150  0.83320256    -0.38200
N794        N  0.04872835  0.52001807  0.87662242    -0.39900
C795        C  0.88733851  0.50868521  0.90177419    -0.04800
C796        C  0.90263670  0.49333382  0.90205949     0.09300
C797        C  0.90295395  0.47809359  0.88667075    -0.02200
C798        C  0.88846065  0.47859753  0.87055061    -0.00500
C799        C  0.87293230  0.49387663  0.87023635    -0.04100
C800        C  0.87232889  0.50880879  0.88610004     0.02900
C801        C  0.91880292  0.49339989  0.91835031     0.09800
C802        C  0.91821609  0.46181990  0.88756379     0.35700
C803        C  0.85593996  0.52395326  0.88677685     0.39100
C804        C  0.91483371  0.48435590  0.93768793    -0.04400
C805        C  0.93029349  0.48405710  0.95288946     0.02700
C806        C  0.94980400  0.49269090  0.94870333    -0.04100
C807        C  0.95387460  0.50143421  0.92923246    -0.00300
C808        C  0.93830751  0.50199914  0.91416164    -0.02800
C809        C  0.89484537  0.47532105  0.94185898     0.36400
C810        C  0.97434274  0.50901756  0.92441686     0.40000
C811        C  0.92601195  0.47522099  0.97296628     0.39200
C812        C  0.94229960  0.51140506  0.89430182     0.36100
C813        C  0.88708229  0.52433507  0.91768054     0.36800
C814        C  0.89021444  0.46390436  0.85385233     0.40000
N815        N  0.92265376  0.46818413  0.98899096    -0.38000
N816        N  0.87888527  0.46812107  0.94515627    -0.39600
N817        N  0.99073004  0.51486257  0.92055044    -0.37400
N818        N  0.94541459  0.51893357  0.87845637    -0.39800
N819        N  0.93033554  0.44880701  0.88845285    -0.39500
N820        N  0.89176066  0.45222637  0.84050649    -0.37200
N821        N  0.84287257  0.53603997  0.88738153    -0.38200
N822        N  0.88690790  0.53680534  0.93037748    -0.39900
C823        C  0.63902548  0.25725566  0.26465999    -0.04800
C824        C  0.64006078  0.24903011  0.24458645     0.09300
C825        C  0.65910873  0.24839876  0.23413708    -0.02200
C826        C  0.67701537  0.25620211  0.24362097    -0.00500
C827        C  0.67592110  0.26477983  0.26357801    -0.04100
C828        C  0.65689652  0.26509909  0.27414303     0.02900
C829        C  0.62098399  0.24112206  0.23440457     0.09800
C830        C  0.66016141  0.23992747  0.21351467     0.35700
C831        C  0.65561378  0.27402770  0.29457216     0.39100
C832        C  0.60748658  0.25483515  0.22436129    -0.04400
C833        C  0.58920148  0.24747584  0.21523708     0.02700
C834        C  0.58450003  0.22624480  0.21575862    -0.04100
C835        C  0.59808069  0.21255044  0.22583796    -0.00300
C836        C  0.61623906  0.21998954  0.23514143    -0.02800
C837        C  0.61252270  0.27653768  0.22339508     0.36400
C838        C  0.59289699  0.19093960  0.22756070     0.40000
C839        C  0.57535590  0.26178714  0.20514309     0.39200
C840        C  0.62995782  0.20597182  0.24579076     0.36100
C841        C  0.61946541  0.25786090  0.27543312     0.36800
C842        C  0.69662276  0.25522233  0.23294636     0.40000
N843        N  0.56428736  0.27325870  0.19720014    -0.38000
N844        N  0.61661710  0.29383030  0.22262812    -0.39600
N845        N  0.58870242  0.17371604  0.22902290    -0.37400
N846        N  0.64094253  0.19484404  0.25431262    -0.39800
N847        N  0.66092847  0.23316554  0.19705567    -0.39500
N848        N  0.71228376  0.25442343  0.22446576    -0.37200
N849        N  0.65471277  0.28113008  0.31088067    -0.38200
N850        N  0.60383905  0.25838514  0.28399399    -0.39900
C851        C  0.75330981  0.34073868  0.24590018    -0.04800
C852        C  0.74232780  0.35925255  0.24861857     0.09300
C853        C  0.72351677  0.35921607  0.25950792    -0.02200
C854        C  0.71579289  0.34073561  0.26780838    -0.00500
C855        C  0.72682057  0.32222280  0.26513990    -0.04100
C856        C  0.74550850  0.32223098  0.25404107     0.02900
C857        C  0.75071258  0.37888093  0.24014322     0.09800
C858        C  0.71222179  0.37825234  0.26224032     0.35700
C859        C  0.75648691  0.30309869  0.25071587     0.39100
C860        C  0.74476609  0.38565440  0.22038980    -0.04400
C861        C  0.75289151  0.40406235  0.21230206     0.02700
C862        C  0.76676663  0.41592966  0.22408428    -0.04100
C863        C  0.77257783  0.40920016  0.24393387    -0.00300
C864        C  0.76470527  0.39061506  0.25185474    -0.02800
C865        C  0.73026397  0.37363271  0.20843482     0.36400
C866        C  0.78708611  0.42110719  0.25600144     0.40000
C867        C  0.74662064  0.41102357  0.19203107     0.39200
C868        C  0.77114725  0.38336734  0.27197120     0.36100
C869        C  0.77267712  0.34081358  0.23477214     0.36800
C870        C  0.69665394  0.34077326  0.27934728     0.40000
N871        N  0.74163526  0.41659524  0.17585902    -0.38000
N872        N  0.71865672  0.36403352  0.19894645    -0.39600
N873        N  0.79866018  0.43059775  0.26564042    -0.37400
N874        N  0.77631889  0.37746151  0.28796410    -0.39800
N875        N  0.70323584  0.39346476  0.26437591    -0.39500
N876        N  0.68139572  0.34074224  0.28856742    -0.37200
N877        N  0.76513618  0.28777671  0.24804678    -0.38200
N878        N  0.78815947  0.34093531  0.22593858    -0.39900
C879        C  0.75035377  0.24248198  0.33728190    -0.04800
C880        C  0.74528398  0.25144909  0.35641352     0.09300
C881        C  0.73248778  0.26897711  0.35702441    -0.02200
C882        C  0.72423138  0.27707959  0.33864807    -0.00500
C883        C  0.72902117  0.26788985  0.31954290    -0.04100
C884        C  0.74233329  0.25075677  0.31887607     0.02900
C885        C  0.75300135  0.24207285  0.37599205     0.09800
C886        C  0.72791239  0.27867902  0.37659577     0.35700
C887        C  0.74795423  0.24183481  0.29920023     0.39100
C888        C  0.77303617  0.24647712  0.38311630    -0.04400
C889        C  0.78037346  0.23734176  0.40141122     0.02700
C890        C  0.76763333  0.22385711  0.41278262    -0.04100
C891        C  0.74750442  0.21959624  0.40570192    -0.00300
C892        C  0.74025104  0.22863168  0.38732965    -0.02800
C893        C  0.78598846  0.26060615  0.37168129     0.36400
C894        C  0.73442585  0.20546398  0.41700010     0.40000
C895        C  0.80082182  0.24233183  0.40886278     0.39200
C896        C  0.71968890  0.22401430  0.37993392     0.36100
C897        C  0.76377385  0.22467984  0.33660679     0.36800
C898        C  0.71049468  0.29465246  0.33938505     0.40000
N899        N  0.81712036  0.24632462  0.41484764    -0.38000
N900        N  0.79628536  0.27190354  0.36254016    -0.39600
N901        N  0.72397812  0.19417039  0.42597636    -0.37400
N902        N  0.70329387  0.22039683  0.37397312    -0.39800
N903        N  0.72435452  0.28644400  0.39222453    -0.39500
N904        N  0.69950003  0.30864497  0.33989430    -0.37200
N905        N  0.75246734  0.23481397  0.28346384    -0.38200
N906        N  0.77452630  0.21050199  0.33613117    -0.39900
C907        C  0.77636132  0.61187694  0.25041335    -0.04800
C908        C  0.76101723  0.62257610  0.23935049     0.09300
C909        C  0.75375841  0.61465894  0.22046965    -0.02200
C910        C  0.76157066  0.59594959  0.21286414    -0.00500
C911        C  0.77626988  0.58484878  0.22436734    -0.04100
C912        C  0.78366802  0.59282935  0.24314289     0.02900
C913        C  0.75132502  0.64132650  0.24837857     0.09800
C914        C  0.73784941  0.62551206  0.20916372     0.35700
C915        C  0.79869208  0.58136763  0.25503219     0.39100
C916        C  0.75563422  0.66098572  0.24022285    -0.04400
C917        C  0.74567087  0.67845220  0.24832915     0.02700
C918        C  0.73164541  0.67630755  0.26477977    -0.04100
C919        C  0.72770166  0.65674080  0.27324096    -0.00300
C920        C  0.73733317  0.63925629  0.26490541    -0.02800
C921        C  0.77021548  0.66317861  0.22344417     0.36400
C922        C  0.71351093  0.65460226  0.29037822     0.40000
C923        C  0.74981621  0.69864714  0.23981805     0.39200
C924        C  0.73253740  0.61903551  0.27303309     0.36100
C925        C  0.78449145  0.62046591  0.26934491     0.36800
C926        C  0.75395325  0.58774312  0.19355031     0.40000
N927        N  0.75307460  0.71478959  0.23307583    -0.38000
N928        N  0.78179737  0.66490964  0.21000404    -0.39600
N929        N  0.70224346  0.65292631  0.30408817    -0.37400
N930        N  0.72877583  0.60287429  0.27945875    -0.39800
N931        N  0.72518318  0.63422234  0.20016340    -0.39500
N932        N  0.74788569  0.58117005  0.17815292    -0.37200
N933        N  0.81059125  0.57216649  0.26457322    -0.38200
N934        N  0.79096891  0.62738445  0.28441981    -0.39900
C935        C  0.63442601  0.72680293  0.26140635    -0.04800
C936        C  0.63516607  0.73870724  0.24323388     0.09300
C937        C  0.65432171  0.74285322  0.23381085    -0.02200
C938        C  0.67271257  0.73591650  0.24301670    -0.00500
C939        C  0.67198059  0.72443641  0.26144402    -0.04100
C940        C  0.65278611  0.71953470  0.27039161     0.02900
C941        C  0.61580337  0.74770851  0.23462026     0.09800
C942        C  0.65505220  0.75433035  0.21467964     0.35700
C943        C  0.65195861  0.70683717  0.28874566     0.39100
C944        C  0.61120342  0.76862649  0.23803669    -0.04400
C945        C  0.59257024  0.77704585  0.23075927     0.02700
C946        C  0.57834019  0.76455798  0.22004919    -0.04100
C947        C  0.58300795  0.74359157  0.21661274    -0.00300
C948        C  0.60178528  0.73527338  0.22368826    -0.02800
C949        C  0.62560938  0.78142294  0.24930754     0.36400
C950        C  0.56868070  0.73059427  0.20549036     0.40000
C951        C  0.58769716  0.79836058  0.23513880     0.39200
C952        C  0.60683436  0.71394804  0.21957338     0.36100
C953        C  0.61475520  0.72226648  0.27098102     0.36800
C954        C  0.69243960  0.74102655  0.23385483     0.40000
N955        N  0.58382390  0.81535295  0.23870054    -0.38000
N956        N  0.63718688  0.79158551  0.25822715    -0.39600
N957        N  0.55722305  0.72018132  0.19670367    -0.37400
N958        N  0.61091109  0.69695157  0.21627014    -0.39800
N959        N  0.65560546  0.76345623  0.19939109    -0.39500
N960        N  0.70821771  0.74511635  0.22664201    -0.37200
N961        N  0.65133321  0.69663470  0.30333355    -0.38200
N962        N  0.59903543  0.71861525  0.27854909    -0.39900
C963        C  0.72232045  0.73126103  0.35639613    -0.04800
C964        C  0.73627804  0.74790475  0.35605422     0.09300
C965        C  0.74362592  0.75545455  0.33702080    -0.02200
C966        C  0.73689070  0.74654399  0.31843318    -0.00500
C967        C  0.72294056  0.72994725  0.31882009    -0.04100
C968        C  0.71572760  0.72225700  0.33780583     0.02900
C969        C  0.74321299  0.75757535  0.37575010     0.09800
C970        C  0.75825302  0.77229254  0.33662200     0.35700
C971        C  0.70158016  0.70500542  0.33814866     0.39100
C972        C  0.75783254  0.74754399  0.38831953    -0.04400
C973        C  0.76438621  0.75671672  0.40685277     0.02700
C974        C  0.75668336  0.77615238  0.41267493    -0.04100
C975        C  0.74213713  0.78622122  0.40009151    -0.00300
C976        C  0.73525113  0.77685786  0.38177368    -0.02800
C977        C  0.76620667  0.72783596  0.38207715     0.36400
C978        C  0.73400130  0.80606385  0.40619570     0.40000
C979        C  0.77921102  0.74624894  0.41986161     0.39200
C980        C  0.71978978  0.78691959  0.36919277     0.36100
C981        C  0.71474853  0.72342730  0.37589106     0.36800
C982        C  0.74430415  0.75439216  0.29887685     0.40000
N983        N  0.79100392  0.73789295  0.43027429    -0.38000
N984        N  0.77282335  0.71209232  0.37708090    -0.39600
N985        N  0.72751293  0.82189450  0.41108007    -0.37400
N986        N  0.70745480  0.79489011  0.35911078    -0.39800
N987        N  0.76989593  0.78575233  0.33636347    -0.39500
N988        N  0.75017455  0.76062236  0.28324639    -0.37200
N989        N  0.69032265  0.69122270  0.33835697    -0.38200
N990        N  0.70878639  0.71711448  0.39145259    -0.39900
C991        C  0.26516378  0.63124943  0.25579753    -0.04800
C992        C  0.24624202  0.63217111  0.24518635     0.09300
C993        C  0.23567316  0.65104317  0.24347015    -0.02200
C994        C  0.24392807  0.66893044  0.25252952    -0.00500
C995        C  0.26276929  0.66795870  0.26333209    -0.04100
C996        C  0.27342108  0.64909094  0.26484714     0.02900
C997        C  0.23714692  0.61296862  0.23652226     0.09800
C998        C  0.21626734  0.65196238  0.23247361     0.35700
C999        C  0.29272319  0.64798257  0.27604549     0.39100
C1000       C  0.22533208  0.59999326  0.24928804    -0.04400
C1001       C  0.21752797  0.58132945  0.24155803     0.02700
C1002       C  0.22158423  0.57549960  0.22099390    -0.04100
C1003       C  0.23338059  0.58857283  0.20819311    -0.00300
C1004       C  0.24103744  0.60732515  0.21592631    -0.02800
C1005       C  0.22125144  0.60593560  0.27042703     0.36400
C1006       C  0.23835526  0.58237256  0.18732022     0.40000
C1007       C  0.20488161  0.56840448  0.25465587     0.39200
C1008       C  0.25308688  0.62077123  0.20279285     0.36100
C1009       C  0.27600519  0.61183045  0.25753696     0.36800
C1010       C  0.23323789  0.68840059  0.25048782     0.40000
N1011       N  0.19477177  0.55812233  0.26511619    -0.38000
N1012       N  0.21806587  0.61076004  0.28727733    -0.39600
N1013       N  0.24241130  0.57737728  0.17070489    -0.37400
N1014       N  0.26264878  0.63154148  0.19230974    -0.39800
N1015       N  0.20078789  0.65266434  0.22367839    -0.39500
N1016       N  0.22476429  0.70396787  0.24887770    -0.37200
N1017       N  0.30812745  0.64717448  0.28496344    -0.38200
N1018       N  0.28458034  0.59629855  0.25891547    -0.39900
C1019       C  0.38597067  0.73419418  0.22476059    -0.04800
C1020       C  0.37340374  0.74570024  0.23820370     0.09300
C1021       C  0.37877090  0.76608965  0.24318775    -0.02200
C1022       C  0.39675608  0.77494415  0.23490501    -0.00500
C1023       C  0.40943140  0.76344874  0.22147934    -0.04100
C1024       C  0.40389553  0.74308240  0.21630847     0.02900
C1025       C  0.35428098  0.73652868  0.24705044     0.09800
C1026       C  0.36579414  0.77785591  0.25703881     0.35700
C1027       C  0.41628320  0.73148786  0.20179025     0.39100
C1028       C  0.35511631  0.72549362  0.26573762    -0.04400
C1029       C  0.33686882  0.71780925  0.27464304     0.02700
C1030       C  0.31773155  0.72122899  0.26491011    -0.04100
C1031       C  0.31693715  0.73219058  0.24616343    -0.00300
C1032       C  0.33519519  0.73972882  0.23720100    -0.02800
C1033       C  0.37478115  0.72210453  0.27575792     0.36400
C1034       C  0.29725717  0.73601462  0.23631446     0.40000
C1035       C  0.33777827  0.70611547  0.29364600     0.39200
C1036       C  0.33441617  0.75083231  0.21784833     0.36100
C1037       C  0.38041029  0.71321768  0.21967082     0.36800
C1038       C  0.40253882  0.79565423  0.24078488     0.40000
N1039       N  0.33843819  0.69677699  0.30880238    -0.38000
N1040       N  0.39049922  0.71940362  0.28370399    -0.39600
N1041       N  0.28151923  0.73907327  0.22853965    -0.37400
N1042       N  0.33386447  0.75966120  0.20238648    -0.39800
N1043       N  0.35536741  0.78715180  0.26809001    -0.39500
N1044       N  0.40714612  0.81216665  0.24552064    -0.37200
N1045       N  0.42610847  0.72228685  0.19012144    -0.38200
N1046       N  0.37599181  0.69646206  0.21566393    -0.39900
C1047       C  0.25031120  0.75514201  0.38979997    -0.04800
C1048       C  0.23701394  0.74570773  0.37547506     0.09300
C1049       C  0.21571658  0.74467543  0.37962828    -0.02200
C1050       C  0.20771254  0.75312095  0.39799147    -0.00500
C1051       C  0.22101715  0.76260269  0.41240542    -0.04100
C1052       C  0.24236706  0.76363070  0.40814486     0.02900
C1053       C  0.24553242  0.73692573  0.35593373     0.09800
C1054       C  0.20209619  0.73471418  0.36502117     0.35700
C1055       C  0.25612363  0.77421435  0.42217518     0.39100
C1056       C  0.25507038  0.71743488  0.35603204    -0.04400
C1057       C  0.26397953  0.70956561  0.33786212     0.02700
C1058       C  0.26286087  0.72087702  0.31932490    -0.04100
C1059       C  0.25301959  0.74023733  0.31914798    -0.00300
C1060       C  0.24449224  0.74829279  0.33743677    -0.02800
C1061       C  0.25554001  0.70543295  0.37484602     0.36400
C1062       C  0.25144959  0.75173295  0.30007019     0.40000
C1063       C  0.27483971  0.69008366  0.33834221     0.39200
C1064       C  0.23463449  0.76829349  0.33728170     0.36100
C1065       C  0.27221449  0.75624408  0.38552027     0.36800
C1066       C  0.18582497  0.75157933  0.40220323     0.40000
N1067       N  0.28362978  0.67461259  0.33866570    -0.38000
N1068       N  0.25579685  0.69584533  0.38985591    -0.39600
N1069       N  0.25021312  0.76085495  0.28481831    -0.37400
N1070       N  0.22671777  0.78422947  0.33719437    -0.39800
N1071       N  0.19128671  0.72675433  0.35332456    -0.39500
N1072       N  0.16834738  0.75035546  0.40549229    -0.37200
N1073       N  0.26708842  0.78272074  0.43332989    -0.38200
N1074       N  0.28968882  0.75704830  0.38210078    -0.39900
C1075       C  0.26048659  0.62929486  0.72702699    -0.04800
C1076       C  0.24041192  0.63135842  0.73507171     0.09300
C1077       C  0.23029475  0.65049539  0.73413280    -0.02200
C1078       C  0.24035677  0.66766916  0.72552353    -0.00500
C1079       C  0.26055344  0.66571235  0.71756021    -0.04100
C1080       C  0.27050184  0.64637253  0.71817494     0.02900
C1081       C  0.23002688  0.61327632  0.74470602     0.09800
C1082       C  0.20957763  0.65249416  0.74224094     0.35700
C1083       C  0.29095448  0.64395164  0.70948777     0.39100
C1084       C  0.23230193  0.60945470  0.76595625    -0.04400
C1085       C  0.22359816  0.59167305  0.77483193     0.02700
C1086       C  0.21303087  0.57734168  0.76233145    -0.04100
C1087       C  0.21014169  0.58163457  0.74117147    -0.00300
C1088       C  0.21845965  0.59965465  0.73245410    -0.02800
C1089       C  0.24400359  0.62366480  0.77856195     0.36400
C1090       C  0.19827070  0.56771578  0.72839638     0.40000
C1091       C  0.22617743  0.58786211  0.79668549     0.39200
C1092       C  0.21519042  0.60423514  0.71084176     0.36100
C1093       C  0.27085575  0.60956378  0.72805094     0.36800
C1094       C  0.23015762  0.68751093  0.72550257     0.40000
N1095       N  0.22814846  0.58493616  0.81415284    -0.38000
N1096       N  0.25339067  0.63500727  0.78856086    -0.39600
N1097       N  0.18880567  0.55661488  0.71819901    -0.37400
N1098       N  0.21250853  0.60799897  0.69363452    -0.39800
N1099       N  0.19303839  0.65404386  0.74870350    -0.39500
N1100       N  0.22207185  0.70336284  0.72542830    -0.37200
N1101       N  0.30728149  0.64200911  0.70259684    -0.38200
N1102       N  0.27907061  0.59380268  0.72894727    -0.39900
C1103       C  0.25997641  0.73000517  0.63140439    -0.04800
C1104       C  0.24768525  0.74749528  0.63525285     0.09300
C1105       C  0.24413622  0.75388905  0.65570563    -0.02200
C1106       C  0.25254356  0.74261211  0.67225768    -0.00500
C1107       C  0.26469403  0.72502813  0.66838341    -0.04100
C1108       C  0.26854321  0.71886135  0.64792880     0.02900
C1109       C  0.23825342  0.75889541  0.61761440     0.09800
C1110       C  0.23189814  0.77210988  0.65963973     0.35700
C1111       C  0.28151671  0.70115368  0.64393579     0.39100
C1112       C  0.21793189  0.75440093  0.61139075    -0.04400
C1113       C  0.20969941  0.76362724  0.59354097     0.02700
C1114       C  0.22189204  0.77713846  0.58164497    -0.04100
C1115       C  0.24191599  0.78228948  0.58837140    -0.00300
C1116       C  0.25001271  0.77330327  0.60641153    -0.02800
C1117       C  0.20574355  0.73978578  0.62305628     0.36400
C1118       C  0.25413393  0.79693899  0.57678461     0.40000
C1119       C  0.18897141  0.75855683  0.58696581     0.39200
C1120       C  0.27053157  0.77865740  0.61339323     0.36100
C1121       C  0.26370891  0.72346046  0.61038738     0.36800
C1122       C  0.24856428  0.74894769  0.69329566     0.40000
N1123       N  0.17242178  0.75455572  0.58171997    -0.38000
N1124       N  0.19606177  0.72810773  0.63238762    -0.39600
N1125       N  0.26386724  0.80867529  0.56757934    -0.37400
N1126       N  0.28687372  0.78292587  0.61905888    -0.39800
N1127       N  0.22216152  0.78668606  0.66272800    -0.39500
N1128       N  0.24540774  0.75394813  0.71010165    -0.37200
N1129       N  0.29193369  0.68705771  0.64082981    -0.38200
N1130       N  0.26666520  0.71830164  0.59359491    -0.39900
C1131       C  0.33593445  0.73195618  0.75159225    -0.04800
C1132       C  0.35495860  0.73090922  0.74110878     0.09300
C1133       C  0.35599402  0.72152989  0.72153579    -0.02200
C1134       C  0.33793667  0.71402988  0.71212330    -0.00500
C1135       C  0.31879714  0.71576911  0.72230133    -0.04100
C1136       C  0.31788352  0.72444382  0.74219904     0.02900
C1137       C  0.37373756  0.74050309  0.75034914     0.09800
C1138       C  0.37564687  0.71967603  0.71107984     0.35700
C1139       C  0.29826810  0.72607735  0.75278403     0.39100
C1140       C  0.38887134  0.72819039  0.75983896    -0.04400
C1141       C  0.40660912  0.73732799  0.76839306     0.02700
C1142       C  0.40916799  0.75893341  0.76783150    -0.04100
C1143       C  0.39380751  0.77125586  0.75855859    -0.00300
C1144       C  0.37628222  0.76203351  0.74965367    -0.02800
C1145       C  0.38605278  0.70610234  0.76095065     0.36400
C1146       C  0.39624651  0.79339064  0.75759644     0.40000
C1147       C  0.42193474  0.72445706  0.77829117     0.39200
C1148       C  0.36091021  0.77464130  0.73947061     0.36100
C1149       C  0.33498599  0.74084927  0.77204151     0.36800
C1150       C  0.33901851  0.70438158  0.69201507     0.40000
N1151       N  0.43419245  0.71419182  0.78614167    -0.38000
N1152       N  0.38379779  0.68848228  0.76182655    -0.39600
N1153       N  0.39807886  0.81106518  0.75681702    -0.37400
N1154       N  0.34858906  0.78457744  0.73130180    -0.39800
N1155       N  0.39136241  0.71805365  0.70282413    -0.39500
N1156       N  0.33979286  0.69667176  0.67597927    -0.37200
N1157       N  0.28258914  0.72732693  0.76117486    -0.38200
N1158       N  0.33427874  0.74794160  0.78836193    -0.39900
C1159       C  0.22199778  0.23680351  0.60415602    -0.04800
C1160       C  0.24227277  0.23229347  0.61051394     0.09300
C1161       C  0.25453599  0.21901216  0.59848924    -0.02200
C1162       C  0.24662618  0.21035940  0.58015565    -0.00500
C1163       C  0.22626853  0.21483984  0.57371301    -0.04100
C1164       C  0.21404013  0.22821605  0.58582955     0.02900
C1165       C  0.25077271  0.24186856  0.62976106     0.09800
C1166       C  0.27528602  0.21413271  0.60514262     0.35700
C1167       C  0.19353209  0.23391185  0.57906811     0.39100
C1168       C  0.24708553  0.23274937  0.64914706    -0.04400
C1169       C  0.25451243  0.24214488  0.66729865     0.02700
C1170       C  0.26579127  0.26068425  0.66619133    -0.04100
C1171       C  0.26948613  0.26979072  0.64678065    -0.00300
C1172       C  0.26208779  0.26036481  0.62863931    -0.02800
C1173       C  0.23570901  0.21361595  0.65034823     0.36400
C1174       C  0.28110020  0.28878355  0.64548265     0.40000
C1175       C  0.25015876  0.23297346  0.68717955     0.39200
C1176       C  0.26620770  0.26959716  0.60873598     0.36100
C1177       C  0.20936946  0.25045810  0.61650005     0.36800
C1178       C  0.25935223  0.19642539  0.56823718     0.40000
N1179       N  0.24657642  0.22568681  0.70303783    -0.38000
N1180       N  0.22666604  0.19831935  0.65125946    -0.39600
N1181       N  0.29032682  0.30396778  0.64451330    -0.37400
N1182       N  0.26954207  0.27686197  0.59281207    -0.39800
N1183       N  0.29182874  0.21022969  0.61049315    -0.39500
N1184       N  0.26954367  0.18534461  0.55872058    -0.37200
N1185       N  0.17718661  0.23854248  0.57368735    -0.38200
N1186       N  0.19933863  0.26132510  0.62642120    -0.39900
C1187       C  0.33361843  0.23437682  0.74406916    -0.04800
C1188       C  0.35312327  0.24371903  0.74205760     0.09300
C1189       C  0.35512383  0.26203266  0.73057950    -0.02200
C1190       C  0.33778414  0.27077715  0.72085716    -0.00500
C1191       C  0.31824265  0.26144050  0.72283274    -0.04100
C1192       C  0.31620405  0.24326431  0.73457157     0.02900
C1193       C  0.37177254  0.23405739  0.75156390     0.09800
C1194       C  0.37511126  0.27183165  0.72877941     0.35700
C1195       C  0.29612216  0.23385388  0.73709240     0.39100
C1196       C  0.38499181  0.22182148  0.73943926    -0.04400
C1197       C  0.40334117  0.21385436  0.74790027     0.02700
C1198       C  0.40846685  0.21784617  0.76866600    -0.04100
C1199       C  0.39477611  0.22941609  0.78103055    -0.00300
C1200       C  0.37657836  0.23763931  0.77243727    -0.02800
C1201       C  0.37961848  0.21743713  0.71821709     0.36400
C1202       C  0.39970357  0.23346209  0.80242826     0.40000
C1203       C  0.41669746  0.20111689  0.73533942     0.39200
C1204       C  0.36294442  0.25013259  0.78493886     0.36100
C1205       C  0.33154967  0.21554813  0.75583658     0.36800
C1206       C  0.34019647  0.28907219  0.70833935     0.40000
N1207       N  0.42732696  0.19091676  0.72532809    -0.38000
N1208       N  0.37523760  0.21393465  0.70131120    -0.39600
N1209       N  0.40360459  0.23663250  0.81951925    -0.37400
N1210       N  0.35205337  0.26010963  0.79489374    -0.39800
N1211       N  0.39108037  0.27960863  0.72740993    -0.39500
N1212       N  0.34231434  0.30358560  0.69826052    -0.37200
N1213       N  0.28009604  0.22636047  0.73917076    -0.38200
N1214       N  0.32994163  0.20052584  0.76524595    -0.39900
C1215       C  0.23785828  0.37659210  0.76549078    -0.04800
C1216       C  0.23641008  0.37181637  0.74435265     0.09300
C1217       C  0.22631202  0.38556004  0.73090246    -0.02200
C1218       C  0.21764260  0.40394360  0.73853921    -0.00500
C1219       C  0.21860700  0.40850672  0.75981281    -0.04100
C1220       C  0.22886162  0.39476948  0.77323547     0.02900
C1221       C  0.24612087  0.35260052  0.73609221     0.09800
C1222       C  0.22492519  0.38074368  0.70914250     0.35700
C1223       C  0.23101496  0.39976836  0.79489434     0.39100
C1224       C  0.23602109  0.33348516  0.73807151    -0.04400
C1225       C  0.24512436  0.31547484  0.73002414     0.02700
C1226       C  0.26431470  0.31649077  0.71979348    -0.04100
C1227       C  0.27452535  0.33559662  0.71809255    -0.00300
C1228       C  0.26545137  0.35356833  0.72620049    -0.02800
C1229       C  0.21621136  0.33241205  0.74833631     0.36400
C1230       C  0.29428061  0.33686687  0.70777344     0.40000
C1231       C  0.23500352  0.29578431  0.73270204     0.39200
C1232       C  0.27596543  0.37315406  0.72437071     0.36100
C1233       C  0.24911648  0.36301956  0.77917072     0.36800
C1234       C  0.20751868  0.41801099  0.72446992     0.40000
N1235       N  0.22702745  0.28002972  0.73488885    -0.38000
N1236       N  0.20041347  0.33158778  0.75655469    -0.39600
N1237       N  0.31005835  0.33808053  0.69957967    -0.37400
N1238       N  0.28424912  0.38883249  0.72291238    -0.39800
N1239       N  0.22389088  0.37686537  0.69178685    -0.39500
N1240       N  0.19957059  0.42927267  0.71319130    -0.37200
N1241       N  0.23276170  0.40381568  0.81215518    -0.38200
N1242       N  0.25818905  0.35224077  0.79006309    -0.39900
C1243       C  0.65367618  0.23415022  0.74441882    -0.04800
C1244       C  0.63538768  0.24582629  0.74481311     0.09300
C1245       C  0.63543731  0.26614902  0.73724878    -0.02200
C1246       C  0.65364427  0.27470120  0.72906608    -0.00500
C1247       C  0.67211397  0.26316864  0.72898778    -0.04100
C1248       C  0.67207964  0.24290903  0.73691291     0.02900
C1249       C  0.61603277  0.23683164  0.75346417     0.09800
C1250       C  0.61663888  0.27818104  0.73777802     0.35700
C1251       C  0.69106419  0.23119543  0.73779684     0.39100
C1252       C  0.61179157  0.23857442  0.77467670    -0.04400
C1253       C  0.59309982  0.23100673  0.78276410     0.02700
C1254       C  0.57870338  0.22113987  0.76972524    -0.04100
C1255       C  0.58330463  0.21891840  0.74853008    -0.00300
C1256       C  0.60180628  0.22694110  0.74041938    -0.02800
C1257       C  0.62671425  0.24828765  0.78814058     0.36400
C1258       C  0.56937858  0.20776506  0.73512992     0.40000
C1259       C  0.58840841  0.23417728  0.80436730     0.39200
C1260       C  0.60630121  0.22501914  0.71862397     0.36100
C1261       C  0.65343335  0.21301382  0.75151529     0.36800
C1262       C  0.65317993  0.29512559  0.72009761     0.40000
N1263       N  0.58469231  0.23680462  0.82159625    -0.38000
N1264       N  0.63871681  0.25595318  0.79882773    -0.39600
N1265       N  0.55833779  0.19879000  0.72442756    -0.37400
N1266       N  0.60992651  0.22354546  0.70123898    -0.39800
N1267       N  0.60162057  0.28774827  0.73825810    -0.39500
N1268       N  0.65285187  0.31138979  0.71288333    -0.37200
N1269       N  0.70617704  0.22180728  0.73864083    -0.38200
N1270       N  0.65317169  0.19609974  0.75702523    -0.39900
C1271       C  0.73002242  0.25986308  0.63686400    -0.04800
C1272       C  0.74128334  0.24138752  0.63874488     0.09300
C1273       C  0.74490545  0.23291624  0.65841861    -0.02200
C1274       C  0.73761834  0.24308439  0.67614995    -0.00500
C1275       C  0.72603728  0.26135067  0.67422961    -0.04100
C1276       C  0.72219587  0.26968223  0.65454367     0.02900
C1277       C  0.74974196  0.23125793  0.61989601     0.09800
C1278       C  0.75595545  0.21364439  0.66035758     0.35700
C1279       C  0.70990326  0.28818159  0.65246500     0.39100
C1280       C  0.77069732  0.23371641  0.61470748    -0.04400
C1281       C  0.77831680  0.22576180  0.59600467     0.02700
C1282       C  0.76492152  0.21553701  0.58224629    -0.04100
C1283       C  0.74404132  0.21269043  0.58769362    -0.00300
C1284       C  0.73657185  0.22023699  0.60662685    -0.02800
C1285       C  0.78432575  0.24473268  0.62853368     0.36400
C1286       C  0.73028093  0.20174097  0.57395477     0.40000
C1287       C  0.79977153  0.22886580  0.59059317     0.39200
C1288       C  0.71537361  0.21651999  0.61262060     0.36100
C1289       C  0.72657586  0.26878185  0.61667919     0.36800
C1290       C  0.74245807  0.23505725  0.69641293     0.40000
N1291       N  0.81689589  0.23136457  0.58632150    -0.38000
N1292       N  0.79514616  0.25344778  0.63966601    -0.39600
N1293       N  0.71929833  0.19306049  0.56295400    -0.37400
N1294       N  0.69850772  0.21344916  0.61749949    -0.39800
N1295       N  0.76470901  0.19822650  0.66189930    -0.39500
N1296       N  0.74651999  0.22878140  0.71258241    -0.37200
N1297       N  0.70003925  0.30289712  0.65076219    -0.38200
N1298       N  0.72386600  0.27582799  0.60054232    -0.39900
C1299       C  0.74753457  0.33593852  0.75181813    -0.04800
C1300       C  0.74248076  0.35498816  0.74266878     0.09300
C1301       C  0.72967748  0.35542977  0.72509838    -0.02200
C1302       C  0.72138198  0.33703325  0.71718455    -0.00500
C1303       C  0.72638140  0.31802011  0.72637916    -0.04100
C1304       C  0.73975963  0.31748246  0.74348296     0.02900
C1305       C  0.75040257  0.37467528  0.75163144     0.09800
C1306       C  0.72517013  0.37486098  0.71510838     0.35700
C1307       C  0.74571144  0.29787609  0.75229359     0.39100
C1308       C  0.77117168  0.38044112  0.74881835    -0.04400
C1309       C  0.77857426  0.39898392  0.75729659     0.02700
C1310       C  0.76502367  0.41233093  0.76786207    -0.04100
C1311       C  0.74409820  0.40683953  0.77012125    -0.00300
C1312       C  0.73696920  0.38780524  0.76256751    -0.02800
C1313       C  0.78482296  0.36741598  0.73688739     0.36400
C1314       C  0.72992070  0.42064344  0.78045479     0.40000
C1315       C  0.80002819  0.40459918  0.75460098     0.39200
C1316       C  0.71587398  0.38150528  0.76635247     0.36100
C1317       C  0.76055977  0.33537349  0.76993804     0.36800
C1318       C  0.70742037  0.33768189  0.69977510     0.40000
N1319       N  0.81715451  0.40905832  0.75249691    -0.38000
N1320       N  0.79566839  0.35702279  0.72731785    -0.39600
N1321       N  0.71856165  0.43173362  0.78852871    -0.37400
N1322       N  0.69909173  0.37637648  0.76945410    -0.39800
N1323       N  0.72165986  0.39039630  0.70716728    -0.39500
N1324       N  0.69620056  0.33824263  0.68595072    -0.37200
N1325       N  0.75053469  0.28218437  0.75916484    -0.38200
N1326       N  0.77096754  0.33494448  0.78439039    -0.39900
C1327       C  0.65552240  0.74734315  0.76165834    -0.04800
C1328       C  0.63636694  0.74242203  0.75261953     0.09300
C1329       C  0.63574746  0.72986246  0.73492891    -0.02200
C1330       C  0.65409427  0.72182722  0.72663321    -0.00500
C1331       C  0.67327646  0.72713520  0.73532895    -0.04100
C1332       C  0.67397056  0.73983734  0.75292096     0.02900
C1333       C  0.61666157  0.74976762  0.76204523     0.09800
C1334       C  0.61618304  0.72546248  0.72509792     0.35700
C1335       C  0.69367494  0.74519991  0.76193907     0.39100
C1336       C  0.60965376  0.76999415  0.75849289    -0.04400
C1337       C  0.59050215  0.77644969  0.76649001     0.02700
C1338       C  0.57819911  0.76265108  0.77792792    -0.04100
C1339       C  0.58527678  0.74246499  0.78158202    -0.00300
C1340       C  0.60448879  0.73607160  0.77372862    -0.02800
C1341       C  0.62194580  0.78397342  0.74617732     0.36400
C1342       C  0.57289853  0.72833094  0.79363458     0.40000
C1343       C  0.58311520  0.79708303  0.76236059     0.39200
C1344       C  0.61173651  0.71531172  0.77747966     0.36100
C1345       C  0.65619876  0.76017588  0.77988388     0.36800
C1346       C  0.65317650  0.70751555  0.70955773     0.40000
N1347       N  0.57715270  0.81351716  0.75904847    -0.38000
N1348       N  0.63176181  0.79511482  0.73633970    -0.39600
N1349       N  0.56306654  0.71702926  0.80327038    -0.37400
N1350       N  0.61758898  0.69875528  0.78034282    -0.39800
N1351       N  0.60057123  0.72209039  0.71720925    -0.39500
N1352       N  0.65227910  0.69580929  0.69618884    -0.37200
N1353       N  0.70942812  0.74942365  0.76910651    -0.38200
N1354       N  0.65671315  0.77047189  0.79439720    -0.39900
C1355       C  0.75352989  0.65887460  0.75377299    -0.04800
C1356       C  0.74967013  0.64007655  0.74364350     0.09300
C1357       C  0.73707418  0.63977161  0.72593899    -0.02200
C1358       C  0.72786940  0.65804805  0.71876222    -0.00500
C1359       C  0.73132357  0.67678236  0.72916989    -0.04100
C1360       C  0.74437625  0.67719505  0.74654592     0.02900
C1361       C  0.75780768  0.62032868  0.75224931     0.09800
C1362       C  0.73336834  0.62051829  0.71531922     0.35700
C1363       C  0.74831795  0.69648927  0.75698422     0.39100
C1364       C  0.74469642  0.60750181  0.76388057    -0.04400
C1365       C  0.75175849  0.58828896  0.77102743     0.02700
C1366       C  0.77225025  0.58202925  0.76714732    -0.04100
C1367       C  0.78554152  0.59514043  0.75593033    -0.00300
C1368       C  0.77824669  0.61411502  0.74829337    -0.02800
C1369       C  0.72390576  0.61421562  0.76856887     0.36400
C1370       C  0.80651622  0.58879852  0.75156242     0.40000
C1371       C  0.73796377  0.57515229  0.78268130     0.39200
C1372       C  0.79162389  0.62709664  0.73601432     0.36100
C1373       C  0.76663548  0.65924644  0.77183631     0.36800
C1374       C  0.71431294  0.65749012  0.70102442     0.40000
N1375       N  0.72688947  0.56465592  0.79187605    -0.38000
N1376       N  0.70736228  0.61968031  0.77231657    -0.39600
N1377       N  0.82325151  0.58372507  0.74811217    -0.37400
N1378       N  0.80229816  0.63742309  0.72617786    -0.39800
N1379       N  0.73043972  0.60510796  0.70693240    -0.39500
N1380       N  0.70345259  0.65708431  0.68690879    -0.37200
N1381       N  0.75143864  0.71191366  0.76527520    -0.38200
N1382       N  0.77713761  0.65949470  0.78622418    -0.39900
C1383       C  0.74828844  0.75353607  0.65783673    -0.04800
C1384       C  0.73622778  0.75137238  0.63989770     0.09300
C1385       C  0.71744271  0.74053713  0.64078498    -0.02200
C1386       C  0.71096499  0.73146855  0.65939664    -0.00500
C1387       C  0.72322925  0.73322338  0.67728010    -0.04100
C1388       C  0.74176465  0.74455665  0.67651368     0.02900
C1389       C  0.74363177  0.75984223  0.61981147     0.09800
C1390       C  0.70489777  0.73854196  0.62241203     0.35700
C1391       C  0.75393159  0.74724690  0.69503917     0.39100
C1392       C  0.75281739  0.74663009  0.60523540    -0.04400
C1393       C  0.75930210  0.75436455  0.58601351     0.02700
C1394       C  0.75740070  0.77554846  0.58160057    -0.04100
C1395       C  0.74825102  0.78877150  0.59623483    -0.00300
C1396       C  0.74115030  0.78088151  0.61518714    -0.02800
C1397       C  0.75586283  0.72510588  0.61023593     0.36400
C1398       C  0.74556417  0.81039912  0.59152136     0.40000
C1399       C  0.76823031  0.74053636  0.57094265     0.39200
C1400       C  0.73108888  0.79433267  0.62987732     0.36100
C1401       C  0.76753975  0.76478996  0.65694894     0.36800
C1402       C  0.69187236  0.71994504  0.65993290     0.40000
N1403       N  0.77521494  0.72942346  0.55890966    -0.38000
N1404       N  0.75832769  0.70798091  0.61437750    -0.39600
N1405       N  0.74341925  0.82764082  0.58770057    -0.37400
N1406       N  0.72302259  0.80505002  0.64158957    -0.39800
N1407       N  0.69493294  0.73691078  0.60773718    -0.39500
N1408       N  0.67658677  0.71082290  0.66006612    -0.37200
N1409       N  0.76356580  0.74942857  0.70986291    -0.38200
N1410       N  0.78288422  0.77380031  0.65617813    -0.39900
loop_ 
_geom_bond_atom_site_label_1 
_geom_bond_atom_site_label_2 
_geom_bond_distance 
_geom_bond_site_symmetry_2 
_ccdc_geom_bond_type 
C1            C2   1.401       .  A
C1            C6   1.403       .  A
C1         C1331   1.483       .  S
C2            C3   1.401       .  A
C2            H7   1.084       .  S
C3            C4   1.404       .  A
C3         C1387   1.486       .  S
C4            C5   1.404       .  A
C4            H8   1.084       .  S
C5            C6   1.404       .  A
C5         C1359   1.486       .  S
C6            H9   1.084       .  S
C10          C11   1.400       .  A
C10          C15   1.402       .  A
C10        C1275   1.482       .  S
C11          C12   1.402       .  A
C11          H16   1.084       .  S
C12          C13   1.405       .  A
C12        C1247   1.490       .  S
C13          C14   1.404       .  A
C13          H17   1.084       .  S
C14          C15   1.402       .  A
C14        C1303   1.485       .  S
C15          H18   1.084       .  S
C19          C20   1.404       .  A
C19          C24   1.406       .  A
C19        C1170   1.492       .  S
C20          C21   1.404       .  A
C20          H25   1.084       .  S
C21          C22   1.403       .  A
C21        C1191   1.488       .  S
C22          C23   1.404       .  A
C22          H26   1.084       .  S
C23          C24   1.407       .  A
C23        C1226   1.491       .  S
C24          H27   1.084       .  S
C28          C29   1.403       .  A
C28          C33   1.405       .  A
C28        C1079   1.489       .  S
C29          C30   1.401       .  A
C29          H34   1.084       .  S
C30          C31   1.402       .  A
C30        C1135   1.483       .  S
C31          C32   1.401       .  A
C31          H35   1.084       .  S
C32          C33   1.402       .  A
C32        C1107   1.483       .  S
C33          H36   1.084       .  S
C37          C38   1.403       .  A
C37          C42   1.399       .  A
C37        C1030   1.482       .  S
C38          C39   1.404       .  A
C38          H43   1.084       .  S
C39          C40   1.404       .  A
C39        C1058   1.487       .  S
C40          C41   1.402       .  A
C40          H44   1.084       .  S
C41          C42   1.399       .  A
C41         C995   1.483       .  S
C42          H45   1.084       .  S
C46          C47   1.400       .  A
C46          C51   1.401       .  A
C46         C967   1.479       .  S
C47          C48   1.400       .  A
C47          H52   1.084       .  S
C48          C49   1.401       .  A
C48         C918   1.478       .  S
C49          C50   1.401       .  A
C49          H53   1.084       .  S
C50          C51   1.403       .  A
C50         C939   1.482       .  S
C51          H54   1.084       .  S
C55          C56   1.402       .  A
C55          C60   1.400       .  A
C55         C855   1.482       .  S
C56          C57   1.402       .  A
C56          H61   1.084       .  S
C57          C58   1.404       .  A
C57         C883   1.485       .  S
C58          C59   1.404       .  A
C58          H62   1.084       .  S
C59          C60   1.402       .  A
C59         C827   1.487       .  S
C60          H63   1.084       .  S
N64          N65   1.322       .  A
N64          C68   1.345       .  A
N64         Cu72   2.070       .  S
N65          C66   1.345       .  A
N65         Cu71   2.079       .  S
C66          C67   1.385       .  A
C66          H69   1.082       .  S
C67          C68   1.383       .  A
C67        C1366   1.487       .  S
C68          H70   1.082       .  S
Cu71         N74   2.079       .  S
Cu72         N82   2.069       .  S
Cu73         N75   2.073       .  S
Cu73         N81   2.072       .  S
N74          N75   1.323       .  A
N74          C78   1.346       .  A
N75          C76   1.345       .  A
C76          C77   1.382       .  A
C76          H79   1.082       .  S
C77          C78   1.384       .  A
C77        C1310   1.485       .  S
C78          H80   1.082       .  S
N81          N82   1.322       .  A
N81          C85   1.344       .  A
N82          C83   1.344       .  A
C83          C84   1.384       .  A
C83          H86   1.082       .  S
C84          C85   1.385       .  A
C84         C799   1.488       .  S
C85          H87   1.082       .  S
N88          N89   1.322       .  A
N88          C92   1.346       .  A
N88         Cu96   2.072       .  S
N89          C90   1.343       .  A
N89         Cu95   2.073       .  S
C90          C91   1.383       .  A
C90          H93   1.082       .  S
C91          C92   1.384       .  A
C91        C1086   1.486       .  S
C92          H94   1.082       .  S
Cu95         N98   2.073       .  S
Cu96        N106   2.072       .  S
Cu97         N99   2.081       .  S
Cu97        N105   2.081       .  S
N98          N99   1.322       .  A
N98         C102   1.345       .  A
N99         C100   1.346       .  A
C100        C101   1.386       .  A
C100        H103   1.082       .  S
C101        C102   1.384       .  A
C101       C1219   1.490       .  S
C102        H104   1.082       .  S
N105        N106   1.323       .  A
N105        C109   1.346       .  A
N106        C107   1.344       .  A
C107        C108   1.383       .  A
C107        H110   1.082       .  S
C108        C109   1.384       .  A
C108        C771   1.486       .  S
C109        H111   1.082       .  S
N112        N113   1.323       .  A
N112        C116   1.345       .  A
N112       Cu120   2.077       .  S
N113        C114   1.345       .  A
N113       Cu119   2.073       .  S
C114        C115   1.382       .  A
C114        H117   1.082       .  S
C115        C116   1.382       .  A
C115        C862   1.482       .  S
C116        H118   1.082       .  S
Cu119       N122   2.072       .  S
Cu120       N130   2.077       .  S
Cu121       N123   2.066       .  S
Cu121       N129   2.067       .  S
N122        N123   1.323       .  A
N122        C126   1.345       .  A
N123        C124   1.344       .  A
C124        C125   1.379       .  A
C124        H127   1.082       .  S
C125        C126   1.381       .  A
C125        C911   1.476       .  S
C126        H128   1.082       .  S
N129        N130   1.322       .  A
N129        C133   1.344       .  A
N130        C131   1.345       .  A
C131        C132   1.386       .  A
C131        H134   1.082       .  S
C132        C133   1.384       .  A
C132        C743   1.489       .  S
C133        H135   1.082       .  S
N136        N137   1.322       .  A
N136        C140   1.344       .  A
N136       Cu144   2.069       .  S
N137        C138   1.345       .  A
N137       Cu143   2.077       .  S
C138        C139   1.384       .  A
C138        H141   1.082       .  S
C139        C140   1.382       .  A
C139        C687   1.485       .  S
C140        H142   1.082       .  S
Cu143       N146   2.077       .  S
Cu144       N154   2.069       .  S
Cu145       N147   2.069       .  S
Cu145       N153   2.069       .  S
N146        N147   1.323       .  A
N146        C150   1.346       .  A
N147        C148   1.344       .  A
C148        C149   1.381       .  A
C148        H151   1.082       .  S
C149        C150   1.384       .  A
C149       C1002   1.484       .  S
C150        H152   1.082       .  S
N153        N154   1.321       .  A
N153        C157   1.345       .  A
N154        C155   1.343       .  A
C155        C156   1.384       .  A
C155        H158   1.082       .  S
C156        C157   1.384       .  A
C156        C722   1.486       .  S
C157        H159   1.082       .  S
O160       Cu168   2.011   1_455  S
O160        C170   1.278       .  A
O161       Cu168   2.011   1_554  S
O161        C171   1.278       .  A
O162       Cu168   2.007   1_454  S
O162        C172   1.278       .  A
O163       Cu168   2.002       .  S
O163        C173   1.277       .  A
O164       Cu169   2.000       .  S
O164        C173   1.276       .  A
O165       Cu169   1.997   1_454  S
O165        C172   1.276       .  A
O166       Cu169   2.004   1_554  S
O166        C171   1.277       .  A
O167       Cu169   2.007   1_455  S
O167        C170   1.278       .  A
Cu168      Cu169   2.375       .  S
C170        C778   1.490       .  S
C171        C750   1.484       .  S
C172        C715   1.478       .  S
C173        C806   1.475       .  S
N174        N175   1.324       .  A
N174        C178   1.348       .  A
N174       Cu182   2.087       .  S
N175        C176   1.344       .  A
N175       Cu181   2.075       .  S
C176        C177   1.382       .  A
C176        H179   1.082       .  S
C177        C178   1.386       .  A
C177       C1142   1.489       .  S
C178        H180   1.082       .  S
Cu181       N184   2.075       .  S
Cu182       N192   2.087       .  S
Cu183       N185   2.072       .  S
Cu183       N191   2.072       .  S
N184        N185   1.321       .  A
N184        C188   1.346       .  A
N185        C186   1.345       .  A
C186        C187   1.382       .  A
C186        H189   1.082       .  S
C187        C188   1.383       .  A
C187       C1338   1.483       .  S
C188        H190   1.082       .  S
N191        N192   1.322       .  A
N191        C195   1.343       .  A
N192        C193   1.348       .  A
C193        C194   1.390       .  A
C193        H196   1.081       .  S
C194        C195   1.385       .  A
C194        C666   1.497       .  S
C195        H197   1.081       .  S
N198        N199   1.323       .  A
N198        C202   1.345       .  A
N198       Cu206   2.077       .  S
N199        C200   1.346       .  A
N199       Cu205   2.081       .  S
C200        C201   1.386       .  A
C200        H203   1.082       .  S
C201        C202   1.385       .  A
C201       C1254   1.491       .  S
C202        H204   1.082       .  S
Cu205       N208   2.081       .  S
Cu206       N216   2.078       .  S
Cu207       N209   2.076       .  S
Cu207       N215   2.076       .  S
N208        N209   1.323       .  A
N208        C212   1.346       .  A
N209        C210   1.346       .  A
C210        C211   1.383       .  A
C210        H213   1.082       .  S
C211        C212   1.384       .  A
C211       C1198   1.488       .  S
C212        H214   1.082       .  S
N215        N216   1.323       .  A
N215        C219   1.346       .  A
N216        C217   1.346       .  A
C217        C218   1.384       .  A
C217        H220   1.082       .  S
C218        C219   1.383       .  A
C218        C638   1.485       .  S
C219        H221   1.082       .  S
N222        N223   1.322       .  A
N222        C226   1.346       .  A
N222       Cu230   2.076       .  S
N223        C224   1.344       .  A
N223       Cu229   2.068       .  S
C224        C225   1.381       .  A
C224        H227   1.082       .  S
C225        C226   1.384       .  A
C225       C1023   1.483       .  S
C226        H228   1.082       .  S
Cu229       N232   2.068       .  S
Cu230       N240   2.076       .  S
Cu231       N233   2.078       .  S
Cu231       N239   2.079       .  S
N232        N233   1.322       .  A
N232        C236   1.344       .  A
N233        C234   1.346       .  A
C234        C235   1.385       .  A
C234        H237   1.082       .  S
C235        C236   1.383       .  A
C235        C946   1.487       .  S
C236        H238   1.082       .  S
N239        N240   1.323       .  A
N239        C243   1.345       .  A
N240        C241   1.346       .  A
C241        C242   1.384       .  A
C241        H244   1.082       .  S
C242        C243   1.385       .  A
C242        C610   1.489       .  S
C243        H245   1.082       .  S
N246        N247   1.321       .  A
N246        C250   1.345       .  A
N246       Cu254   2.072       .  S
N247        C248   1.343       .  A
N247       Cu253   2.063       .  S
C248        C249   1.382       .  A
C248        H251   1.082       .  S
C249        C250   1.384       .  A
C249        C547   1.483       .  S
C250        H252   1.082       .  S
Cu253       N256   2.063       .  S
Cu254       N264   2.073       .  S
Cu255       N257   2.094       .  S
Cu255       N263   2.094       .  S
N256        N257   1.323       .  A
N256        C260   1.343       .  A
N257        C258   1.348       .  A
C258        C259   1.388       .  A
C258        H261   1.082       .  S
C259        C260   1.380       .  A
C259        C834   1.488       .  S
C260        H262   1.082       .  S
N263        N264   1.323       .  A
N263        C267   1.348       .  A
N264        C265   1.345       .  A
C265        C266   1.384       .  A
C265        H268   1.082       .  S
C266        C267   1.389       .  A
C266        C575   1.495       .  S
C267        H269   1.082       .  S
O270       Cu278   2.019       .  S
O270        C280   1.279       .  A
O271       Cu278   2.013   1_544  S
O271        C281   1.279       .  A
O272       Cu278   2.014   1_545  S
O272        C282   1.278       .  A
O273       Cu278   2.012   1_554  S
O273        C283   1.278       .  A
O274       Cu279   2.008   1_554  S
O274        C283   1.278       .  A
O275       Cu279   2.018   1_545  S
O275        C282   1.279       .  A
O276       Cu279   2.017   1_544  S
O276        C281   1.278       .  A
O277       Cu279   2.012       .  S
O277        C280   1.277       .  A
Cu278      Cu279   2.367       .  S
C280        C659   1.485       .  S
C281        C582   1.494       .  S
C282        C631   1.510       .  S
C283        C603   1.487       .  S
C284        C285   1.403       .  A
C284        C289   1.400       .  A
C284        C694   1.485       .  S
C285        C286   1.409       .  A
C285        H290   1.084       .  S
C286        C287   1.407       .  A
C286        C526   1.500       .  S
C287        C288   1.399       .  A
C287        H291   1.083       .  S
C288        C289   1.398       .  A
C288        C554   1.482       .  S
C289        H292   1.084       .  S
N293        N294   1.323       .  A
N293        C297   1.347       .  A
N293       Cu301   2.082       .  S
N294        C295   1.344       .  A
N294       Cu300   2.068       .  S
C295        C296   1.379       .  A
C295        H298   1.082       .  S
C296        C297   1.383       .  A
C296        C974   1.480       .  S
C297        H299   1.082       .  S
Cu300       N303   2.068       .  S
Cu301       N311   2.083       .  S
Cu302       N304   2.081       .  S
Cu302       N310   2.082       .  S
N303        N304   1.323       .  A
N303        C307   1.345       .  A
N304        C305   1.346       .  A
C305        C306   1.384       .  A
C305        H308   1.082       .  S
C306        C307   1.382       .  A
C306       C1394   1.484       .  S
C307        H309   1.082       .  S
N310        N311   1.322       .  A
N310        C314   1.347       .  A
N311        C312   1.346       .  A
C312        C313   1.388       .  A
C312        H315   1.082       .  S
C313        C314   1.388       .  A
C313        C498   1.498       .  S
C314        H316   1.082       .  S
N317        N318   1.322       .  A
N317        C321   1.345       .  A
N317       Cu325   2.070       .  S
N318        C319   1.346       .  A
N318       Cu324   2.081       .  S
C319        C320   1.387       .  A
C319        H322   1.082       .  S
C320        C321   1.384       .  A
C320       C1051   1.490       .  S
C321        H323   1.082       .  S
Cu324       N327   2.081       .  S
Cu325       N335   2.070       .  S
Cu326       N328   2.079       .  S
Cu326       N334   2.079       .  S
N327        N328   1.324       .  A
N327        C331   1.345       .  A
N328        C329   1.347       .  A
C329        C330   1.383       .  A
C329        H332   1.082       .  S
C330        C331   1.382       .  A
C330       C1114   1.484       .  S
C331        H333   1.082       .  S
N334        N335   1.323       .  A
N334        C338   1.346       .  A
N335        C336   1.344       .  A
C336        C337   1.381       .  A
C336        H339   1.082       .  S
C337        C338   1.384       .  A
C337        C470   1.483       .  S
C338        H340   1.082       .  S
N341        N342   1.323       .  A
N341        C345   1.346       .  A
N341       Cu349   2.080       .  S
N342        C343   1.346       .  A
N342       Cu348   2.078       .  S
C343        C344   1.383       .  A
C343        H346   1.082       .  S
C344        C345   1.384       .  A
C344        C890   1.486       .  S
C345        H347   1.082       .  S
Cu348       N351   2.078       .  S
Cu349       N359   2.080       .  S
Cu350       N352   2.068       .  S
Cu350       N358   2.068       .  S
N351        N352   1.322       .  A
N351        C355   1.346       .  A
N352        C353   1.344       .  A
C353        C354   1.382       .  A
C353        H356   1.082       .  S
C354        C355   1.384       .  A
C354       C1282   1.484       .  S
C355        H357   1.082       .  S
N358        N359   1.322       .  A
N358        C362   1.344       .  A
N359        C360   1.345       .  A
C360        C361   1.386       .  A
C360        H363   1.082       .  S
C361        C362   1.384       .  A
C361        C435   1.490       .  S
C362        H364   1.082       .  S
N365        N366   1.323       .  A
N365        C369   1.347       .  A
N365       Cu373   2.090       .  S
N366        C367   1.347       .  A
N366       Cu372   2.084       .  S
C367        C368   1.386       .  A
C367        H370   1.082       .  S
C368        C369   1.388       .  A
C368       C1163   1.497       .  S
C369        H371   1.082       .  S
Cu372       N375   2.081       .  S
Cu373       N383   2.089       .  S
Cu374       N376   2.070       .  S
Cu374       N382   2.071       .  S
N375        N376   1.320       .  A
N375        C379   1.345       .  A
N376        C377   1.343       .  A
C377        C378   1.389       .  A
C377        H380   1.081       .  S
C378        C379   1.392       .  A
C378        C519   1.504       .  S
C379        H381   1.081       .  S
N382        N383   1.322       .  A
N382        C386   1.346       .  A
N383        C384   1.347       .  A
C384        C385   1.388       .  A
C384        H387   1.082       .  S
C385        C386   1.383       .  A
C385        C407   1.492       .  S
C386        H388   1.082       .  S
O389       Cu397   2.014   1_445  S
O389        C399   1.279       .  A
O390       Cu397   2.013       .  S
O390        C400   1.278       .  A
O391       Cu397   2.003   1_455  S
O391        C401   1.278       .  A
O392       Cu397   2.004   1_545  S
O392        C402   1.277       .  A
O393       Cu398   2.008   1_545  S
O393        C402   1.278       .  A
O394       Cu398   2.013   1_455  S
O394        C401   1.278       .  A
O395       Cu398   2.022       .  S
O395        C400   1.279       .  A
O396       Cu398   2.016   1_445  S
O396        C399   1.278       .  A
Cu397      Cu398   2.373       .  S
C399        C414   1.490       .  S
C400        C491   1.488       .  S
C401        C463   1.491       .  S
C402        C442   1.481       .  S
C403        C404   1.412       .  A
C403        C408   1.412       .  A
C403        C421   1.451       .  S
C404        C405   1.413       .  A
C404        C409   1.503       .  S
C405        C406   1.414       .  A
C405        C410   1.451       .  S
C406        C407   1.415       .  A
C406        C422   1.451       .  S
C407        C408   1.415       .  A
C408        C411   1.451       .  S
C409        C412   1.412       .  A
C409        C416   1.413       .  A
C410        N427   1.157       .  T
C411        N429   1.157       .  T
C412        C413   1.412       .  A
C412        C417   1.451       .  S
C413        C414   1.415       .  A
C413        C419   1.451       .  S
C414        C415   1.414       .  A
C415        C416   1.413       .  A
C415        C418   1.451       .  S
C416        C420   1.450       .  S
C417        N424   1.157       .  T
C418        N425   1.157       .  T
C419        N423   1.157   1_455  T
C420        N426   1.157       .  T
C421        N430   1.157       .  T
C422        N428   1.157       .  T
C431        C432   1.409       .  A
C431        C436   1.410       .  A
C431        C449   1.451       .  S
C432        C433   1.410       .  A
C432        C437   1.495       .  S
C433        C434   1.411       .  A
C433        C438   1.451       .  S
C434        C435   1.416       .  A
C434        C450   1.451       .  S
C435        C436   1.416       .  A
C436        C439   1.451       .  S
C437        C440   1.411       .  A
C437        C444   1.411       .  A
C438        N455   1.157       .  T
C439        N457   1.157       .  T
C440        C441   1.409       .  A
C440        C445   1.451       .  S
C441        C442   1.414       .  A
C441        C447   1.452       .  S
C442        C443   1.413       .  A
C443        C444   1.411       .  A
C443        C446   1.451       .  S
C444        C448   1.450       .  S
C445        N452   1.157       .  T
C446        N453   1.157   1_545  T
C447        N451   1.157       .  T
C448        N454   1.157       .  T
C449        N458   1.157       .  T
C450        N456   1.157       .  T
C459        C460   1.410       .  A
C459        C464   1.410       .  A
C459        C477   1.451       .  S
C460        C461   1.411       .  A
C460        C465   1.497       .  S
C461        C462   1.412       .  A
C461        C466   1.451       .  S
C462        C463   1.417       .  A
C462        C478   1.451       .  S
C463        C464   1.417       .  A
C464        C467   1.452       .  S
C465        C468   1.412       .  A
C465        C472   1.411       .  A
C466        N483   1.157       .  T
C467        N485   1.157       .  T
C468        C469   1.410       .  A
C468        C473   1.451       .  S
C469        C470   1.412       .  A
C469        C475   1.451       .  S
C470        C471   1.413       .  A
C471        C472   1.410       .  A
C471        C474   1.451       .  S
C472        C476   1.450       .  S
C473        N480   1.157       .  T
C474        N481   1.157       .  T
C475        N479   1.157       .  T
C476        N482   1.157       .  T
C477        N486   1.157       .  T
C478        N484   1.157       .  T
C487        C488   1.413       .  A
C487        C492   1.414       .  A
C487        C505   1.450       .  S
C488        C489   1.413       .  A
C488        C493   1.503       .  S
C489        C490   1.413       .  A
C489        C494   1.451       .  S
C490        C491   1.413       .  A
C490        C506   1.451       .  S
C491        C492   1.413       .  A
C492        C495   1.451       .  S
C493        C496   1.411       .  A
C493        C500   1.411       .  A
C494        N511   1.157       .  T
C495        N513   1.157       .  T
C496        C497   1.414       .  A
C496        C501   1.451       .  S
C497        C498   1.418       .  A
C497        C503   1.450       .  S
C498        C499   1.417       .  A
C499        C500   1.413       .  A
C499        C502   1.451       .  S
C500        C504   1.451       .  S
C501        N508   1.157       .  T
C502        N509   1.157       .  T
C503        N507   1.157       .  T
C504        N510   1.157       .  T
C505        N514   1.157       .  T
C506        N512   1.157       .  T
C515        C516   1.412       .  A
C515        C520   1.411       .  A
C515        C533   1.452       .  S
C516        C517   1.413       .  A
C516        C521   1.505       .  S
C517        C518   1.411       .  A
C517        C522   1.452       .  S
C518        C519   1.420       .  A
C518        C534   1.450       .  S
C519        C520   1.421       .  A
C520        C523   1.451       .  S
C521        C524   1.414       .  A
C521        C528   1.414       .  A
C522        N539   1.157       .  T
C523        N541   1.158       .  T
C524        C525   1.410       .  A
C524        C529   1.451       .  S
C525        C526   1.418       .  A
C525        C531   1.451       .  S
C526        C527   1.418       .  A
C527        C528   1.410       .  A
C527        C530   1.452       .  S
C528        C532   1.451       .  S
C529        N536   1.157       .  T
C530        N537   1.157       .  T
C531        N535   1.157       .  T
C532        N538   1.157       .  T
C533        N542   1.157       .  T
C534        N540   1.158       .  T
C543        C544   1.410       .  A
C543        C548   1.409       .  A
C543        C561   1.451       .  S
C544        C545   1.410       .  A
C544        C549   1.492       .  S
C545        C546   1.409       .  A
C545        C550   1.451       .  S
C546        C547   1.414       .  A
C546        C562   1.451       .  S
C547        C548   1.414       .  A
C548        C551   1.451       .  S
C549        C552   1.411       .  A
C549        C556   1.411       .  A
C550        N567   1.157       .  T
C551        N569   1.157       .  T
C552        C553   1.408       .  A
C552        C557   1.451       .  S
C553        C554   1.413       .  A
C553        C559   1.451       .  S
C554        C555   1.412       .  A
C555        C556   1.409       .  A
C555        C558   1.450       .  S
C556        C560   1.450       .  S
C557        N564   1.157       .  T
C558        N565   1.157       .  T
C559        N563   1.157       .  T
C560        N566   1.157       .  T
C561        N570   1.157       .  T
C562        N568   1.157       .  T
C571        C572   1.410       .  A
C571        C576   1.413       .  A
C571        C589   1.450       .  S
C572        C573   1.410       .  A
C572        C577   1.500       .  S
C573        C574   1.412       .  A
C573        C578   1.451       .  S
C574        C575   1.417       .  A
C574        C590   1.451       .  S
C575        C576   1.416       .  A
C576        C579   1.450       .  S
C577        C580   1.410       .  A
C577        C584   1.410       .  A
C578        N595   1.157       .  T
C579        N597   1.157       .  T
C580        C581   1.413       .  A
C580        C585   1.450       .  S
C581        C582   1.418       .  A
C581        C587   1.452       .  S
C582        C583   1.416       .  A
C583        C584   1.412       .  A
C583        C586   1.449       .  S
C584        C588   1.451       .  S
C585        N592   1.157       .  T
C586        N593   1.157       .  T
C587        N591   1.157       .  T
C588        N594   1.157       .  T
C589        N598   1.157       .  T
C590        N596   1.157       .  T
C599        C600   1.411       .  A
C599        C604   1.411       .  A
C599        C617   1.451       .  S
C600        C601   1.412       .  A
C600        C605   1.499       .  S
C601        C602   1.411       .  A
C601        C606   1.451       .  S
C602        C603   1.414       .  A
C602        C618   1.451       .  S
C603        C604   1.415       .  A
C604        C607   1.452       .  S
C605        C608   1.412       .  A
C605        C612   1.411       .  A
C606        N623   1.157       .  T
C607        N625   1.157       .  T
C608        C609   1.412       .  A
C608        C613   1.451       .  S
C609        C610   1.414       .  A
C609        C615   1.451       .  S
C610        C611   1.415       .  A
C611        C612   1.411       .  A
C611        C614   1.451       .  S
C612        C616   1.451       .  S
C613        N620   1.157       .  T
C614        N621   1.157       .  T
C615        N619   1.157       .  T
C616        N622   1.157       .  T
C617        N626   1.157       .  T
C618        N624   1.157       .  T
C627        C628   1.407       .  A
C627        C632   1.413       .  A
C627        C645   1.452       .  S
C628        C629   1.408       .  A
C628        C633   1.500       .  S
C629        C630   1.414       .  A
C629        C634   1.452       .  S
C630        C631   1.426       .  A
C630        C646   1.451       .  S
C631        C632   1.426       .  A
C632        C635   1.451       .  S
C633        C636   1.412       .  A
C633        C640   1.412       .  A
C634        N651   1.157       .  T
C635        N653   1.157       .  T
C636        C637   1.411       .  A
C636        C641   1.450       .  S
C637        C638   1.413       .  A
C637        C643   1.451       .  S
C638        C639   1.412       .  A
C639        C640   1.411       .  A
C639        C642   1.451       .  S
C640        C644   1.450       .  S
C641        N648   1.157       .  T
C642        N649   1.157       .  T
C643        N647   1.157       .  T
C644        N650   1.157       .  T
C645        N654   1.157       .  T
C646        N652   1.158       .  T
C655        C656   1.411       .  A
C655        C660   1.411       .  A
C655        C673   1.451       .  S
C656        C657   1.411       .  A
C656        C661   1.499       .  S
C657        C658   1.412       .  A
C657        C662   1.450       .  S
C658        C659   1.414       .  A
C658        C674   1.451       .  S
C659        C660   1.412       .  A
C660        C663   1.449       .  S
C661        C664   1.409       .  A
C661        C668   1.410       .  A
C662        N679   1.157       .  T
C663        N681   1.157       .  T
C664        C665   1.411       .  A
C664        C669   1.451       .  S
C665        C666   1.419       .  A
C665        C671   1.451       .  S
C666        C667   1.418       .  A
C667        C668   1.414       .  A
C667        C670   1.450       .  S
C668        C672   1.451       .  S
C669        N676   1.157       .  T
C670        N677   1.157       .  T
C671        N675   1.157       .  T
C672        N678   1.157       .  T
C673        N682   1.157       .  T
C674        N680   1.157       .  T
C683        C684   1.410       .  A
C683        C688   1.409       .  A
C683        C701   1.451       .  S
C684        C685   1.410       .  A
C684        C689   1.493       .  S
C685        C686   1.410       .  A
C685        C690   1.450       .  S
C686        C687   1.415       .  A
C686        C702   1.451       .  S
C687        C688   1.413       .  A
C688        C691   1.451       .  S
C689        C692   1.411       .  A
C689        C696   1.410       .  A
C690        N707   1.157       .  T
C691        N709   1.157       .  T
C692        C693   1.411       .  A
C692        C697   1.450       .  S
C693        C694   1.412       .  A
C693        C699   1.450       .  S
C694        C695   1.414       .  A
C695        C696   1.408       .  A
C695        C698   1.452       .  S
C696        C700   1.451       .  S
C697        N704   1.157       .  T
C698        N705   1.157       .  T
C699        N703   1.157       .  T
C700        N706   1.157       .  T
C701        N710   1.157       .  T
C702        N708   1.157       .  T
C711        C712   1.412       .  A
C711        C716   1.410       .  A
C711        C729   1.451       .  S
C712        C713   1.411       .  A
C712        C717   1.493       .  S
C713        C714   1.408       .  A
C713        C718   1.451       .  S
C714        C715   1.413       .  A
C714        C730   1.452       .  S
C715        C716   1.413       .  A
C716        C719   1.451       .  S
C717        C720   1.409       .  A
C717        C724   1.411       .  A
C718        N735   1.157       .  T
C719        N737   1.157       .  T
C720        C721   1.409       .  A
C720        C725   1.451       .  S
C721        C722   1.415       .  A
C721        C727   1.451       .  S
C722        C723   1.415       .  A
C723        C724   1.410       .  A
C723        C726   1.451       .  S
C724        C728   1.451       .  S
C725        N732   1.157       .  T
C726        N733   1.157       .  T
C727        N731   1.157       .  T
C728        N734   1.157       .  T
C729        N738   1.157       .  T
C730        N736   1.157       .  T
C739        C740   1.411       .  A
C739        C744   1.410       .  A
C739        C757   1.451       .  S
C740        C741   1.411       .  A
C740        C745   1.497       .  S
C741        C742   1.411       .  A
C741        C746   1.451       .  S
C742        C743   1.415       .  A
C742        C758   1.451       .  S
C743        C744   1.416       .  A
C744        C747   1.451       .  S
C745        C748   1.411       .  A
C745        C752   1.412       .  A
C746        N763   1.157       .  T
C747        N765   1.157       .  T
C748        C749   1.409       .  A
C748        C753   1.451       .  S
C749        C750   1.414       .  A
C749        C755   1.452       .  S
C750        C751   1.414       .  A
C751        C752   1.411       .  A
C751        C754   1.451       .  S
C752        C756   1.451       .  S
C753        N760   1.157       .  T
C754        N761   1.157       .  T
C755        N759   1.157       .  T
C756        N762   1.157       .  T
C757        N766   1.157       .  T
C758        N764   1.157       .  T
C767        C768   1.410       .  A
C767        C772   1.410       .  A
C767        C785   1.451       .  S
C768        C769   1.411       .  A
C768        C773   1.495       .  S
C769        C770   1.411       .  A
C769        C774   1.450       .  S
C770        C771   1.414       .  A
C770        C786   1.450       .  S
C771        C772   1.415       .  A
C772        C775   1.451       .  S
C773        C776   1.409       .  A
C773        C780   1.410       .  A
C774        N791   1.157       .  T
C775        N793   1.157       .  T
C776        C777   1.411       .  A
C776        C781   1.451       .  S
C777        C778   1.417       .  A
C777        C783   1.451       .  S
C778        C779   1.417       .  A
C779        C780   1.411       .  A
C779        C782   1.451       .  S
C780        C784   1.451       .  S
C781        N788   1.157       .  T
C782        N789   1.157       .  T
C783        N787   1.157       .  T
C784        N790   1.157       .  T
C785        N794   1.157       .  T
C786        N792   1.157       .  T
C795        C796   1.409       .  A
C795        C800   1.410       .  A
C795        C813   1.451       .  S
C796        C797   1.409       .  A
C796        C801   1.491       .  S
C797        C798   1.409       .  A
C797        C802   1.451       .  S
C798        C799   1.416       .  A
C798        C814   1.451       .  S
C799        C800   1.417       .  A
C800        C803   1.451       .  S
C801        C804   1.410       .  A
C801        C808   1.411       .  A
C802        N819   1.157       .  T
C803        N821   1.157       .  T
C804        C805   1.409       .  A
C804        C809   1.450       .  S
C805        C806   1.412       .  A
C805        C811   1.452       .  S
C806        C807   1.411       .  A
C807        C808   1.408       .  A
C807        C810   1.452       .  S
C808        C812   1.451       .  S
C809        N816   1.157       .  T
C810        N817   1.157       .  T
C811        N815   1.157       .  T
C812        N818   1.157       .  T
C813        N822   1.157       .  T
C814        N820   1.157       .  T
C823        C824   1.411       .  A
C823        C828   1.410       .  A
C823        C841   1.450       .  S
C824        C825   1.411       .  A
C824        C829   1.496       .  S
C825        C826   1.411       .  A
C825        C830   1.450       .  S
C826        C827   1.413       .  A
C826        C842   1.451       .  S
C827        C828   1.413       .  A
C828        C831   1.451       .  S
C829        C832   1.410       .  A
C829        C836   1.410       .  A
C830        N847   1.157       .  T
C831        N849   1.157       .  T
C832        C833   1.411       .  A
C832        C837   1.451       .  S
C833        C834   1.415       .  A
C833        C839   1.451       .  S
C834        C835   1.414       .  A
C835        C836   1.411       .  A
C835        C838   1.450       .  S
C836        C840   1.450       .  S
C837        N844   1.157       .  T
C838        N845   1.157       .  T
C839        N843   1.157       .  T
C840        N846   1.157       .  T
C841        N850   1.157       .  T
C842        N848   1.157       .  T
C851        C852   1.411       .  A
C851        C856   1.409       .  A
C851        C869   1.450       .  S
C852        C853   1.411       .  A
C852        C857   1.493       .  S
C853        C854   1.410       .  A
C853        C858   1.450       .  S
C854        C855   1.412       .  A
C854        C870   1.451       .  S
C855        C856   1.411       .  A
C856        C859   1.451       .  S
C857        C860   1.410       .  A
C857        C864   1.410       .  A
C858        N875   1.157       .  T
C859        N877   1.157       .  T
C860        C861   1.410       .  A
C860        C865   1.450       .  S
C861        C862   1.413       .  A
C861        C867   1.451       .  S
C862        C863   1.413       .  A
C863        C864   1.410       .  A
C863        C866   1.451       .  S
C864        C868   1.451       .  S
C865        N872   1.157       .  T
C866        N873   1.157       .  T
C867        N871   1.157       .  T
C868        N874   1.157       .  T
C869        N878   1.157       .  T
C870        N876   1.157       .  T
C879        C880   1.412       .  A
C879        C884   1.411       .  A
C879        C897   1.450       .  S
C880        C881   1.411       .  A
C880        C885   1.497       .  S
C881        C882   1.411       .  A
C881        C886   1.450       .  S
C882        C883   1.412       .  A
C882        C898   1.451       .  S
C883        C884   1.411       .  A
C884        C887   1.450       .  S
C885        C888   1.411       .  A
C885        C892   1.411       .  A
C886        N903   1.157       .  T
C887        N905   1.157       .  T
C888        C889   1.411       .  A
C888        C893   1.450       .  S
C889        C890   1.414       .  A
C889        C895   1.450       .  S
C890        C891   1.413       .  A
C891        C892   1.411       .  A
C891        C894   1.451       .  S
C892        C896   1.451       .  S
C893        N900   1.157       .  T
C894        N901   1.157       .  T
C895        N899   1.157       .  T
C896        N902   1.157       .  T
C897        N906   1.157       .  T
C898        N904   1.157       .  T
C907        C908   1.412       .  A
C907        C912   1.409       .  A
C907        C925   1.451       .  S
C908        C909   1.412       .  A
C908        C913   1.493       .  S
C909        C910   1.408       .  A
C909        C914   1.451       .  S
C910        C911   1.411       .  A
C910        C926   1.451       .  S
C911        C912   1.410       .  A
C912        C915   1.451       .  S
C913        C916   1.412       .  A
C913        C920   1.412       .  A
C914        N931   1.157       .  T
C915        N933   1.157       .  T
C916        C917   1.410       .  A
C916        C921   1.450       .  S
C917        C918   1.410       .  A
C917        C923   1.451       .  S
C918        C919   1.410       .  A
C919        C920   1.407       .  A
C919        C922   1.451       .  S
C920        C924   1.451       .  S
C921        N928   1.157       .  T
C922        N929   1.157       .  T
C923        N927   1.157       .  T
C924        N930   1.157       .  T
C925        N934   1.157       .  T
C926        N932   1.157       .  T
C935        C936   1.412       .  A
C935        C940   1.409       .  A
C935        C953   1.451       .  S
C936        C937   1.412       .  A
C936        C941   1.496       .  S
C937        C938   1.410       .  A
C937        C942   1.450       .  S
C938        C939   1.411       .  A
C938        C954   1.451       .  S
C939        C940   1.411       .  A
C940        C943   1.451       .  S
C941        C944   1.411       .  A
C941        C948   1.410       .  A
C942        N959   1.157       .  T
C943        N961   1.157       .  T
C944        C945   1.410       .  A
C944        C949   1.451       .  S
C945        C946   1.414       .  A
C945        C951   1.451       .  S
C946        C947   1.415       .  A
C947        C948   1.411       .  A
C947        C950   1.451       .  S
C948        C952   1.451       .  S
C949        N956   1.157       .  T
C950        N957   1.157       .  T
C951        N955   1.157       .  T
C952        N958   1.157       .  T
C953        N962   1.157       .  T
C954        N960   1.157       .  T
C963        C964   1.413       .  A
C963        C968   1.409       .  A
C963        C981   1.450       .  S
C964        C965   1.413       .  A
C964        C969   1.496       .  S
C965        C966   1.409       .  A
C965        C970   1.450       .  S
C966        C967   1.410       .  A
C966        C982   1.451       .  S
C967        C968   1.410       .  A
C968        C971   1.451       .  S
C969        C972   1.412       .  A
C969        C976   1.412       .  A
C970        N987   1.157       .  T
C971        N989   1.157       .  T
C972        C973   1.410       .  A
C972        C977   1.451       .  S
C973        C974   1.412       .  A
C973        C979   1.451       .  S
C974        C975   1.410       .  A
C975        C976   1.410       .  A
C975        C978   1.450       .  S
C976        C980   1.451       .  S
C977        N984   1.157       .  T
C978        N985   1.157       .  T
C979        N983   1.157       .  T
C980        N986   1.157       .  T
C981        N990   1.157       .  T
C982        N988   1.157       .  T
C991        C992   1.410       .  A
C991        C996   1.408       .  A
C991       C1009   1.451       .  S
C992        C993   1.411       .  A
C992        C997   1.493       .  S
C993        C994   1.411       .  A
C993        C998   1.450       .  S
C994        C995   1.412       .  A
C994       C1010   1.450       .  S
C995        C996   1.412       .  A
C996        C999   1.451       .  S
C997       C1000   1.410       .  A
C997       C1004   1.410       .  A
C998       N1015   1.157       .  T
C999       N1017   1.157       .  T
C1000      C1001   1.409       .  A
C1000      C1005   1.451       .  S
C1001      C1002   1.413       .  A
C1001      C1007   1.450       .  S
C1002      C1003   1.414       .  A
C1003      C1004   1.411       .  A
C1003      C1006   1.451       .  S
C1004      C1008   1.450       .  S
C1005      N1012   1.157       .  T
C1006      N1013   1.157       .  T
C1007      N1011   1.157       .  T
C1008      N1014   1.157       .  T
C1009      N1018   1.157       .  T
C1010      N1016   1.157       .  T
C1019      C1020   1.410       .  A
C1019      C1024   1.411       .  A
C1019      C1037   1.450       .  S
C1020      C1021   1.410       .  A
C1020      C1025   1.492       .  S
C1021      C1022   1.409       .  A
C1021      C1026   1.451       .  S
C1022      C1023   1.413       .  A
C1022      C1038   1.450       .  S
C1023      C1024   1.414       .  A
C1024      C1027   1.451       .  S
C1025      C1028   1.411       .  A
C1025      C1032   1.410       .  A
C1026      N1043   1.157       .  T
C1027      N1045   1.157       .  T
C1028      C1029   1.410       .  A
C1028      C1033   1.450       .  S
C1029      C1030   1.412       .  A
C1029      C1035   1.451       .  S
C1030      C1031   1.412       .  A
C1031      C1032   1.409       .  A
C1031      C1034   1.451       .  S
C1032      C1036   1.450       .  S
C1033      N1040   1.157       .  T
C1034      N1041   1.157       .  T
C1035      N1039   1.157       .  T
C1036      N1042   1.157       .  T
C1037      N1046   1.157       .  T
C1038      N1044   1.157       .  T
C1047      C1048   1.411       .  A
C1047      C1052   1.411       .  A
C1047      C1065   1.451       .  S
C1048      C1049   1.410       .  A
C1048      C1053   1.498       .  S
C1049      C1050   1.412       .  A
C1049      C1054   1.451       .  S
C1050      C1051   1.416       .  A
C1050      C1066   1.451       .  S
C1051      C1052   1.415       .  A
C1052      C1055   1.451       .  S
C1053      C1056   1.411       .  A
C1053      C1060   1.412       .  A
C1054      N1071   1.157       .  T
C1055      N1073   1.157       .  T
C1056      C1057   1.410       .  A
C1056      C1061   1.450       .  S
C1057      C1058   1.413       .  A
C1057      C1063   1.451       .  S
C1058      C1059   1.412       .  A
C1059      C1060   1.411       .  A
C1059      C1062   1.451       .  S
C1060      C1064   1.450       .  S
C1061      N1068   1.157       .  T
C1062      N1069   1.157       .  T
C1063      N1067   1.157       .  T
C1064      N1070   1.157       .  T
C1065      N1074   1.157       .  T
C1066      N1072   1.157       .  T
C1075      C1076   1.410       .  A
C1075      C1080   1.410       .  A
C1075      C1093   1.451       .  S
C1076      C1077   1.409       .  A
C1076      C1081   1.493       .  S
C1077      C1078   1.410       .  A
C1077      C1082   1.450       .  S
C1078      C1079   1.415       .  A
C1078      C1094   1.451       .  S
C1079      C1080   1.415       .  A
C1080      C1083   1.451       .  S
C1081      C1084   1.410       .  A
C1081      C1088   1.409       .  A
C1082      N1099   1.157       .  T
C1083      N1101   1.157       .  T
C1084      C1085   1.411       .  A
C1084      C1089   1.451       .  S
C1085      C1086   1.415       .  A
C1085      C1091   1.450       .  S
C1086      C1087   1.415       .  A
C1087      C1088   1.409       .  A
C1087      C1090   1.451       .  S
C1088      C1092   1.451       .  S
C1089      N1096   1.157       .  T
C1090      N1097   1.157       .  T
C1091      N1095   1.157       .  T
C1092      N1098   1.157       .  T
C1093      N1102   1.157       .  T
C1094      N1100   1.157       .  T
C1103      C1104   1.412       .  A
C1103      C1108   1.409       .  A
C1103      C1121   1.450       .  S
C1104      C1105   1.411       .  A
C1104      C1109   1.496       .  S
C1105      C1106   1.411       .  A
C1105      C1110   1.450       .  S
C1106      C1107   1.412       .  A
C1106      C1122   1.450       .  S
C1107      C1108   1.410       .  A
C1108      C1111   1.451       .  S
C1109      C1112   1.411       .  A
C1109      C1116   1.411       .  A
C1110      N1127   1.157       .  T
C1111      N1129   1.157       .  T
C1112      C1113   1.411       .  A
C1112      C1117   1.450       .  S
C1113      C1114   1.413       .  A
C1113      C1119   1.450       .  S
C1114      C1115   1.412       .  A
C1115      C1116   1.411       .  A
C1115      C1118   1.450       .  S
C1116      C1120   1.450       .  S
C1117      N1124   1.157       .  T
C1118      N1125   1.157       .  T
C1119      N1123   1.157       .  T
C1120      N1126   1.157       .  T
C1121      N1130   1.157       .  T
C1122      N1128   1.157       .  T
C1131      C1132   1.412       .  A
C1131      C1136   1.409       .  A
C1131      C1149   1.450       .  S
C1132      C1133   1.412       .  A
C1132      C1137   1.496       .  S
C1133      C1134   1.410       .  A
C1133      C1138   1.450       .  S
C1134      C1135   1.412       .  A
C1134      C1150   1.451       .  S
C1135      C1136   1.412       .  A
C1136      C1139   1.451       .  S
C1137      C1140   1.410       .  A
C1137      C1144   1.411       .  A
C1138      N1155   1.157       .  T
C1139      N1157   1.157       .  T
C1140      C1141   1.411       .  A
C1140      C1145   1.451       .  S
C1141      C1142   1.416       .  A
C1141      C1147   1.451       .  S
C1142      C1143   1.414       .  A
C1143      C1144   1.411       .  A
C1143      C1146   1.450       .  S
C1144      C1148   1.451       .  S
C1145      N1152   1.157       .  T
C1146      N1153   1.157       .  T
C1147      N1151   1.157       .  T
C1148      N1154   1.157       .  T
C1149      N1158   1.157       .  T
C1150      N1156   1.157       .  T
C1159      C1160   1.411       .  A
C1159      C1164   1.413       .  A
C1159      C1177   1.451       .  S
C1160      C1161   1.411       .  A
C1160      C1165   1.502       .  S
C1161      C1162   1.414       .  A
C1161      C1166   1.450       .  S
C1162      C1163   1.417       .  A
C1162      C1178   1.450       .  S
C1163      C1164   1.417       .  A
C1164      C1167   1.450       .  S
C1165      C1168   1.412       .  A
C1165      C1172   1.412       .  A
C1166      N1183   1.157       .  T
C1167      N1185   1.157       .  T
C1168      C1169   1.413       .  A
C1168      C1173   1.450       .  S
C1169      C1170   1.413       .  A
C1169      C1175   1.450       .  S
C1170      C1171   1.413       .  A
C1171      C1172   1.413       .  A
C1171      C1174   1.450       .  S
C1172      C1176   1.450       .  S
C1173      N1180   1.157       .  T
C1174      N1181   1.157       .  T
C1175      N1179   1.157       .  T
C1176      N1182   1.157       .  T
C1177      N1186   1.157       .  T
C1178      N1184   1.157       .  T
C1187      C1188   1.411       .  A
C1187      C1192   1.412       .  A
C1187      C1205   1.450       .  S
C1188      C1189   1.411       .  A
C1188      C1193   1.498       .  S
C1189      C1190   1.411       .  A
C1189      C1194   1.451       .  S
C1190      C1191   1.413       .  A
C1190      C1206   1.450       .  S
C1191      C1192   1.413       .  A
C1192      C1195   1.450       .  S
C1193      C1196   1.411       .  A
C1193      C1200   1.411       .  A
C1194      N1211   1.157       .  T
C1195      N1213   1.157       .  T
C1196      C1197   1.411       .  A
C1196      C1201   1.451       .  S
C1197      C1198   1.414       .  A
C1197      C1203   1.451       .  S
C1198      C1199   1.415       .  A
C1199      C1200   1.412       .  A
C1199      C1202   1.451       .  S
C1200      C1204   1.450       .  S
C1201      N1208   1.157       .  T
C1202      N1209   1.157       .  T
C1203      N1207   1.157       .  T
C1204      N1210   1.157       .  T
C1205      N1214   1.157       .  T
C1206      N1212   1.157       .  T
C1215      C1216   1.411       .  A
C1215      C1220   1.412       .  A
C1215      C1233   1.450       .  S
C1216      C1217   1.411       .  A
C1216      C1221   1.500       .  S
C1217      C1218   1.412       .  A
C1217      C1222   1.451       .  S
C1218      C1219   1.415       .  A
C1218      C1234   1.451       .  S
C1219      C1220   1.415       .  A
C1220      C1223   1.451       .  S
C1221      C1224   1.412       .  A
C1221      C1228   1.411       .  A
C1222      N1239   1.157       .  T
C1223      N1241   1.157       .  T
C1224      C1225   1.413       .  A
C1224      C1229   1.450       .  S
C1225      C1226   1.413       .  A
C1225      C1231   1.450       .  S
C1226      C1227   1.413       .  A
C1227      C1228   1.411       .  A
C1227      C1230   1.449       .  S
C1228      C1232   1.451       .  S
C1229      N1236   1.157       .  T
C1230      N1237   1.157       .  T
C1231      N1235   1.157       .  T
C1232      N1238   1.157       .  T
C1233      N1242   1.157       .  T
C1234      N1240   1.157       .  T
C1243      C1244   1.410       .  A
C1243      C1248   1.411       .  A
C1243      C1261   1.450       .  S
C1244      C1245   1.410       .  A
C1244      C1249   1.496       .  S
C1245      C1246   1.410       .  A
C1245      C1250   1.450       .  S
C1246      C1247   1.415       .  A
C1246      C1262   1.451       .  S
C1247      C1248   1.415       .  A
C1248      C1251   1.450       .  S
C1249      C1252   1.409       .  A
C1249      C1256   1.410       .  A
C1250      N1267   1.157       .  T
C1251      N1269   1.157       .  T
C1252      C1253   1.411       .  A
C1252      C1257   1.451       .  S
C1253      C1254   1.416       .  A
C1253      C1259   1.450       .  S
C1254      C1255   1.416       .  A
C1255      C1256   1.412       .  A
C1255      C1258   1.450       .  S
C1256      C1260   1.451       .  S
C1257      N1264   1.157       .  T
C1258      N1265   1.157       .  T
C1259      N1263   1.157       .  T
C1260      N1266   1.157       .  T
C1261      N1270   1.157       .  T
C1262      N1268   1.157       .  T
C1271      C1272   1.412       .  A
C1271      C1276   1.409       .  A
C1271      C1289   1.451       .  S
C1272      C1273   1.411       .  A
C1272      C1277   1.495       .  S
C1273      C1274   1.410       .  A
C1273      C1278   1.450       .  S
C1274      C1275   1.412       .  A
C1274      C1290   1.450       .  S
C1275      C1276   1.411       .  A
C1276      C1279   1.450       .  S
C1277      C1280   1.411       .  A
C1277      C1284   1.411       .  A
C1278      N1295   1.157       .  T
C1279      N1297   1.157       .  T
C1280      C1281   1.410       .  A
C1280      C1285   1.451       .  S
C1281      C1282   1.414       .  A
C1281      C1287   1.451       .  S
C1282      C1283   1.413       .  A
C1283      C1284   1.410       .  A
C1283      C1286   1.451       .  S
C1284      C1288   1.451       .  S
C1285      N1292   1.157       .  T
C1286      N1293   1.157       .  T
C1287      N1291   1.157       .  T
C1288      N1294   1.157       .  T
C1289      N1298   1.157       .  T
C1290      N1296   1.157       .  T
C1299      C1300   1.413       .  A
C1299      C1304   1.411       .  A
C1299      C1317   1.450       .  S
C1300      C1301   1.413       .  A
C1300      C1305   1.499       .  S
C1301      C1302   1.410       .  A
C1301      C1306   1.451       .  S
C1302      C1303   1.411       .  A
C1302      C1318   1.450       .  S
C1303      C1304   1.411       .  A
C1304      C1307   1.450       .  S
C1305      C1308   1.412       .  A
C1305      C1312   1.412       .  A
C1306      N1323   1.157       .  T
C1307      N1325   1.157       .  T
C1308      C1309   1.411       .  A
C1308      C1313   1.451       .  S
C1309      C1310   1.414       .  A
C1309      C1315   1.451       .  S
C1310      C1311   1.413       .  A
C1311      C1312   1.411       .  A
C1311      C1314   1.451       .  S
C1312      C1316   1.451       .  S
C1313      N1320   1.157       .  T
C1314      N1321   1.157       .  T
C1315      N1319   1.157       .  T
C1316      N1322   1.157       .  T
C1317      N1326   1.157       .  T
C1318      N1324   1.157       .  T
C1327      C1328   1.413       .  A
C1327      C1332   1.412       .  A
C1327      C1345   1.450       .  S
C1328      C1329   1.411       .  A
C1328      C1333   1.496       .  S
C1329      C1330   1.408       .  A
C1329      C1334   1.451       .  S
C1330      C1331   1.411       .  A
C1330      C1346   1.450       .  S
C1331      C1332   1.411       .  A
C1332      C1335   1.450       .  S
C1333      C1336   1.411       .  A
C1333      C1340   1.412       .  A
C1334      N1351   1.157       .  T
C1335      N1353   1.157       .  T
C1336      C1337   1.411       .  A
C1336      C1341   1.450       .  S
C1337      C1338   1.412       .  A
C1337      C1343   1.451       .  S
C1338      C1339   1.411       .  A
C1339      C1340   1.410       .  A
C1339      C1342   1.450       .  S
C1340      C1344   1.451       .  S
C1341      N1348   1.157       .  T
C1342      N1349   1.157       .  T
C1343      N1347   1.157       .  T
C1344      N1350   1.157       .  T
C1345      N1354   1.157       .  T
C1346      N1352   1.157       .  T
C1355      C1356   1.412       .  A
C1355      C1360   1.412       .  A
C1355      C1373   1.450       .  S
C1356      C1357   1.412       .  A
C1356      C1361   1.497       .  S
C1357      C1358   1.410       .  A
C1357      C1362   1.451       .  S
C1358      C1359   1.412       .  A
C1358      C1374   1.451       .  S
C1359      C1360   1.412       .  A
C1360      C1363   1.450       .  S
C1361      C1364   1.411       .  A
C1361      C1368   1.411       .  A
C1362      N1379   1.157       .  T
C1363      N1381   1.157       .  T
C1364      C1365   1.410       .  A
C1364      C1369   1.451       .  S
C1365      C1366   1.414       .  A
C1365      C1371   1.451       .  S
C1366      C1367   1.415       .  A
C1367      C1368   1.412       .  A
C1367      C1370   1.451       .  S
C1368      C1372   1.450       .  S
C1369      N1376   1.157       .  T
C1370      N1377   1.157       .  T
C1371      N1375   1.157       .  T
C1372      N1378   1.157       .  T
C1373      N1382   1.157       .  T
C1374      N1380   1.157       .  T
C1383      C1384   1.411       .  A
C1383      C1388   1.411       .  A
C1383      C1401   1.450       .  S
C1384      C1385   1.410       .  A
C1384      C1389   1.495       .  S
C1385      C1386   1.409       .  A
C1385      C1390   1.451       .  S
C1386      C1387   1.413       .  A
C1386      C1402   1.449       .  S
C1387      C1388   1.413       .  A
C1388      C1391   1.450       .  S
C1389      C1392   1.411       .  A
C1389      C1396   1.411       .  A
C1390      N1407   1.157       .  T
C1391      N1409   1.157       .  T
C1392      C1393   1.410       .  A
C1392      C1397   1.451       .  S
C1393      C1394   1.413       .  A
C1393      C1399   1.450       .  S
C1394      C1395   1.413       .  A
C1395      C1396   1.411       .  A
C1395      C1398   1.451       .  S
C1396      C1400   1.450       .  S
C1397      N1404   1.157       .  T
C1398      N1405   1.157       .  T
C1399      N1403   1.157       .  T
C1400      N1406   1.157       .  T
C1401      N1410   1.157       .  T
C1402      N1408   1.157       .  T
