geometry optimzed in LAMMPS
_audit_creation_date              2020-12-01 
_audit_creation_method            'lammps2cif' 
_symmetry_space_group_name_H-M    'P1' 
_symmetry_Int_Tables_number       1 
_symmetry_cell_setting            triclinic 
loop_ 
_symmetry_equiv_pos_as_xyz 
  x,y,z 
_cell_length_a                    22.98552256 
_cell_length_b                    24.758012021228936 
_cell_length_c                    24.862090986633124 
_cell_angle_alpha                 93.86693319195456 
_cell_angle_beta                  89.27575007645873 
_cell_angle_gamma                 92.68570444795421 
loop_ 
_atom_site_label 
_atom_site_type_symbol 
_atom_site_fract_x 
_atom_site_fract_y 
_atom_site_fract_z 
_atom_site_charge 
C1          C  0.20846466  0.82386261  0.56858868     0.79900
N2          N  0.15711723  0.84806125  0.57982781    -0.78500
C3          C  0.12540246  0.86742425  0.54020477     0.82300
N4          N  0.14581794  0.86284755  0.48858681    -0.78400
C5          C  0.19639862  0.83827085  0.47584518     0.82400
N6          N  0.22728140  0.81743123  0.51606201    -0.80100
C7          C  0.66691780  0.30702837  0.53174508     0.79900
N8          N  0.62026240  0.27213352  0.52579507    -0.78500
C9          C  0.60813082  0.24602786  0.47734909     0.82300
N10         N  0.62602981  0.27040233  0.43246784    -0.78400
C11         C  0.67627304  0.30108393  0.43347413     0.82400
N12         N  0.69901297  0.31818220  0.48463534    -0.80100
C13         C  0.69250222  0.77128570  0.52750389     0.79900
N14         N  0.63618214  0.78029898  0.51779806    -0.78500
C15         C  0.61705379  0.78813776  0.46742406     0.82300
N16         N  0.65409728  0.77966686  0.42520171    -0.78400
C17         C  0.71103760  0.77135376  0.43193824     0.82400
N18         N  0.73141165  0.76861953  0.48404842    -0.80100
C19         C  0.54279254  0.78294121  0.20151778     0.79900
N20         N  0.53522757  0.72913762  0.18803932    -0.78500
C21         C  0.48122969  0.70495312  0.18229165     0.82300
N22         N  0.43607605  0.73083485  0.20604887    -0.78400
C23         C  0.43855809  0.78522454  0.21588064     0.82400
N24         N  0.49289983  0.81276525  0.21147771    -0.80100
C25         C  0.74446832  0.60032734  0.17333630     0.79900
N26         N  0.79099389  0.59916897  0.13869085    -0.78500
C27         C  0.81329547  0.55172597  0.11927910     0.82300
N28         N  0.78702499  0.50469940  0.13333548    -0.78400
C29         C  0.74011089  0.50332359  0.16713237     0.82400
N30         N  0.71956916  0.55172053  0.18902838    -0.80100
C31         C  0.77796702  0.61349880  0.77103591     0.79900
N32         N  0.75071740  0.56542468  0.75143358    -0.78500
C33         C  0.76410463  0.51821565  0.77382820     0.82300
N34         N  0.80664360  0.51994095  0.81117009    -0.78400
C35         C  0.83589768  0.56631333  0.82783992     0.82400
N36         N  0.82016723  0.61276403  0.80839547    -0.80100
C37         C  0.54173740  0.23930112  0.79502771     0.79900
N38         N  0.54141997  0.21153432  0.84113945    -0.78500
C39         C  0.49165151  0.19793785  0.86805796     0.82300
N40         N  0.44100491  0.21323703  0.84852125    -0.78400
C41         C  0.43905370  0.24072614  0.80327630     0.82400
N42         N  0.48953310  0.25303107  0.77511744    -0.80100
C43         C  0.23623506  0.57915078  0.74265567     0.79900
N44         N  0.29479136  0.57413011  0.74565585    -0.78500
C45         C  0.31881606  0.52570844  0.75357213     0.82300
N46         N  0.28422923  0.48020700  0.74914230    -0.78400
C47         C  0.22587733  0.48135896  0.74965450     0.82400
N48         N  0.20056916  0.53199506  0.74825568    -0.80100
C49         C  0.54222135  0.86825494  0.73170535     0.79900
N50         N  0.48862610  0.84051447  0.74110826    -0.78500
C51         C  0.43716064  0.86926832  0.74281445     0.82300
N52         N  0.44265131  0.92380556  0.74481534    -0.78400
C53         C  0.49487036  0.95101326  0.74623896     0.82400
N54         N  0.54242566  0.92298918  0.73242236    -0.80100
C55         C  0.95159656  0.35085197  0.25739844     0.79900
N56         N  0.99937142  0.32820104  0.27858467    -0.78500
C57         C  0.04462455  0.36203351  0.29875706     0.82300
N58         N  0.03970896  0.41626363  0.29948992    -0.78400
C59         C  0.99314603  0.43841586  0.27884155     0.82400
N60         N  0.95013729  0.40553525  0.25754018    -0.80100
O61         O  0.23150864  0.44577313  0.33451271    -0.81300
O62         O  0.15719161  0.19653586  0.28715271    -0.65900
O63         O  0.23905962  0.33294558  0.32272422    -1.12500
C64         C  0.24650719  0.32868634  0.12578945     1.05600
O65         O  0.22915481  0.17251360  0.23200028    -0.79200
O66         O  0.31160706  0.24222955  0.19319663    -0.66700
Ni67       Ni  0.21020211  0.38498255  0.37582746     1.34900
C68         C  0.34455057  0.27570847  0.22150027     0.84400
O69         O  0.18047939  0.25072560  0.38362639    -0.79700
O70         O  0.18868423  0.33255026  0.42724347    -0.90000
C71         C  0.18369803  0.16009507  0.25881940     0.83900
O72         O  0.13335048  0.38077501  0.34462219    -0.68200
O73         O  0.22829463  0.27954620  0.12716688    -0.87500
C74         C  0.10133643  0.34437224  0.31845922     0.84800
C75         C  0.17819368  0.28179430  0.42692709     1.06300
H76         H  0.16883717  0.29291469  0.22134547     0.38100
O77         O  0.20591497  0.28289987  0.23467604    -1.10100
O78         O  0.32607453  0.31826085  0.24668181    -0.66800
Ni79       Ni  0.24983250  0.34960116  0.24704917     1.26300
O80         O  0.11808464  0.29683040  0.30570915    -0.67000
O81         O  0.25868464  0.35979550  0.16880163    -0.79300
C82         C  0.26503950  0.45749428  0.29543228     0.84200
O83         O  0.28828851  0.42060800  0.26457427    -0.66500
Ni84       Ni  0.22955634  0.22900810  0.18221508     1.27400
Ni85       Ni  0.19416917  0.26569472  0.30818667     1.26100
H86         H  0.27628349  0.32341000  0.33612016     0.38700
C87         C  0.17078346  0.00812397  0.25134021     0.79900
N88         N  0.19361103  0.05940374  0.24409038    -0.78500
C89         C  0.16099800  0.10325991  0.25902984     0.82300
N90         N  0.10925206  0.09540832  0.28436891    -0.78400
C91         C  0.08937279  0.04536064  0.29631614     0.82400
N92         N  0.11825480  0.00225410  0.27536959    -0.80100
O93         O  0.23175639  0.94315033  0.20603801    -0.81300
O94         O  0.25880932  0.69288939  0.23859703    -0.65900
O95         O  0.23839677  0.84537846  0.23109513    -1.12500
C96         C  0.20794680  0.82370108  0.41770334     1.05600
O97         O  0.25311773  0.68602614  0.32805481    -0.79200
O98         O  0.12146933  0.77437991  0.33979655    -0.66700
Ni99       Ni  0.29362237  0.89226313  0.19857533     1.34900
C100        C  0.10089082  0.81342008  0.31733937     0.84400
O101        O  0.25850783  0.76896305  0.15499926    -0.79700
O102        O  0.26366861  0.85616321  0.12998644    -0.90000
C103        C  0.25868057  0.66376145  0.28030445     0.83900
O104        O  0.36402320  0.84901999  0.19396491    -0.68200
O105        O  0.21304830  0.77259951  0.40387648    -0.87500
C106        C  0.37769187  0.80864260  0.21971260     0.84800
C107        C  0.25322006  0.80455062  0.11948401     1.06300
H108        H  0.27846382  0.78564094  0.32483813     0.38100
O109        O  0.24132338  0.78537777  0.30687494    -1.10100
O110        O  0.13496605  0.84522123  0.29168101    -0.66800
Ni111      Ni  0.22048248  0.85793464  0.30483912     1.26300
O112        O  0.33759304  0.78021957  0.24225519    -0.67000
O113        O  0.20536036  0.86128369  0.38338379    -0.79300
C114        C  0.20634952  0.95962272  0.25032433     0.84200
O115        O  0.20612766  0.93381354  0.29434914    -0.66500
Ni116      Ni  0.19017559  0.73445417  0.33567683     1.27400
Ni117      Ni  0.25276374  0.77224066  0.23258330     1.26100
H118        H  0.20207261  0.84671839  0.21218302     0.38700
O119        O  0.88014849  0.27638640  0.26506795    -0.81300
O120        O  0.60589459  0.26793330  0.25892075    -0.65900
O121        O  0.76978951  0.27944408  0.25218862    -1.12500
C122        C  0.72257845  0.44779092  0.18462972     1.05600
O123        O  0.57816954  0.34416869  0.22250881    -0.79200
O124        O  0.69847029  0.34879311  0.11229800    -0.66700
Ni125      Ni  0.81449286  0.27058835  0.31457968     1.34900
C126        C  0.74803572  0.32941471  0.10372780     0.84400
O127        O  0.69595304  0.20116734  0.28636612    -0.79700
O128        O  0.79287537  0.19174259  0.29953735    -0.90000
C129        C  0.56611554  0.29815364  0.24300035     0.83900
O130        O  0.75666857  0.27331894  0.37357744    -0.68200
O131        O  0.66849330  0.42846844  0.18347249    -0.87500
C132        C  0.70900871  0.29739205  0.37830409     0.84800
C133        C  0.73987884  0.17117338  0.29324384     1.06300
H134        H  0.68164275  0.36797802  0.25865763     0.38100
O135        O  0.69172723  0.34141021  0.23006001    -1.10100
O136        O  0.77806101  0.31631722  0.14422200    -0.66800
Ni137      Ni  0.77254300  0.34763892  0.22134552     1.26300
O138        O  0.68264491  0.30747744  0.33495700    -0.67000
O139        O  0.76660648  0.41888561  0.19412106    -0.79300
C140        C  0.89425174  0.32225026  0.24534728     0.84200
O141        O  0.85686606  0.35174383  0.22363616    -0.66500
Ni142      Ni  0.64312238  0.35029112  0.17116466     1.27400
Ni143      Ni  0.68952720  0.27302136  0.25996437     1.26100
H144        H  0.78072214  0.25281105  0.22408071     0.38700
C145        C  0.72876238  0.01464444  0.28749229     0.79900
N146        N  0.75424356  0.06640881  0.28257330    -0.78500
C147        C  0.72245507  0.11147476  0.29796684     0.82300
N148        N  0.66660174  0.10313702  0.31434644    -0.78400
C149        C  0.64032404  0.05363999  0.31641185     0.82400
N150        N  0.67205387  0.00977930  0.30364133    -0.80100
O151        O  0.73574564  0.66310059  0.25106806    -0.81300
O152        O  0.75704031  0.92274740  0.29918349    -0.65900
O153        O  0.74334748  0.76785891  0.26104844    -1.12500
C154        C  0.71889445  0.83793893  0.08636992     1.05600
O155        O  0.75063202  0.95081239  0.21445349    -0.79200
O156        O  0.61793916  0.85316059  0.18312935    -0.66700
Ni157      Ni  0.79348543  0.71591100  0.28144005     1.34900
C158        C  0.60604269  0.80523690  0.19645320     0.84400
O159        O  0.75525049  0.82219542  0.36077832    -0.79700
O160        O  0.75659555  0.72893399  0.35303108    -0.90000
C161        C  0.75339974  0.96165378  0.26597432     0.83900
O162        O  0.85729987  0.76196336  0.30732777    -0.68200
O163        O  0.71207226  0.88379551  0.11460704    -0.87500
C164        C  0.87635126  0.80976968  0.30033926     0.84800
C165        C  0.74704102  0.77441876  0.38061241     1.06300
H166        H  0.78336549  0.86010669  0.19298038     0.38100
O167        O  0.74597249  0.84902728  0.20823850    -1.10100
O168        O  0.64721159  0.77229962  0.20016670    -0.66800
Ni169      Ni  0.73230394  0.77530770  0.18598166     1.26300
O170        O  0.84275945  0.84438015  0.28166367    -0.67000
O171        O  0.72226217  0.79217889  0.10930456    -0.79300
C172        C  0.73144513  0.65539768  0.19945387     0.84200
O173        O  0.72860380  0.69573582  0.16867461    -0.66500
Ni174      Ni  0.68939212  0.89846561  0.19240388     1.27400
Ni175      Ni  0.75510048  0.84167192  0.28388068     1.26100
H176        H  0.70560274  0.75756670  0.27553715     0.38700
C177        C  0.93415840  0.82398892  0.32819988     0.79900
N178        N  0.98918972  0.82446213  0.30347684    -0.78500
C179        C  0.03880512  0.82418137  0.33531448     0.82300
N180        N  0.03142463  0.81702813  0.38857284    -0.78400
C181        C  0.97872075  0.80991196  0.41168812     0.82400
N182        N  0.93092979  0.81518610  0.38158336    -0.80100
C183        C  0.26587296  0.33600717  0.97480794     0.79900
N184        N  0.23736727  0.33061024  0.02372904    -0.78500
C185        C  0.26601707  0.34536156  0.07163209     0.82300
N186        N  0.32227980  0.36254165  0.06963842    -0.78400
C187        C  0.35162660  0.36494275  0.02260056     0.82400
N188        N  0.32332121  0.35219234  0.97529951    -0.80100
O189        O  0.20710315  0.36042299  0.90025254    -0.81300
O190        O  0.19895248  0.30491834  0.65031779    -0.65900
O191        O  0.18046989  0.29801463  0.80260687    -1.12500
C192        C  0.38048892  0.25009537  0.78379043     1.05600
O193        O  0.23314717  0.22247877  0.64368910    -0.79200
O194        O  0.27633141  0.16791204  0.72900369    -0.66700
Ni195      Ni  0.14456943  0.35562234  0.84535765     1.34900
C196        C  0.25145189  0.15863580  0.77399397     0.84400
O197        O  0.10984065  0.31917471  0.71742377    -0.79700
O198        O  0.07643995  0.35221341  0.79775877    -0.90000
C199        C  0.20528203  0.25991994  0.62363693     0.83900
O200        O  0.17544094  0.42002775  0.80974851    -0.68200
O201        O  0.37078031  0.24095564  0.73346971    -0.87500
C202        C  0.19758317  0.42617543  0.76278463     0.84800
C203        C  0.06950788  0.33773797  0.74761032     1.06300
H204        H  0.29124995  0.32013856  0.73409140     0.38100
O205        O  0.26693854  0.28739370  0.73824250    -1.10100
O206        O  0.23847005  0.19841107  0.80824451    -0.66800
Ni207      Ni  0.25998922  0.27874234  0.81359484     1.26300
O208        O  0.20794061  0.38451222  0.73050839    -0.67000
O209        O  0.34100056  0.26195890  0.81928142    -0.79300
C210        C  0.23740381  0.32391344  0.92021963     0.84200
O211        O  0.25102506  0.28088970  0.89171139    -0.66500
Ni212      Ni  0.30040684  0.23234249  0.69179290     1.27400
Ni213      Ni  0.18868910  0.30515297  0.72692128     1.26100
H214        H  0.15591954  0.26600681  0.80705653     0.38700
C215        C  0.22895400  0.00354044  0.79006179     0.79900
N216        N  0.17852627  0.99723014  0.76287895    -0.78500
C217        C  0.15947320  0.03660747  0.73363570     0.82300
N218        N  0.17986524  0.08829310  0.74578777    -0.78400
C219        C  0.22624094  0.10010272  0.77834409     0.82400
N220        N  0.25513237  0.05601562  0.79662053    -0.80100
O221        O  0.23156013  0.83940048  0.90805684    -0.81300
O222        O  0.25102277  0.84346704  0.65393975    -0.65900
O223        O  0.23664510  0.82795420  0.80412333    -1.12500
C224        C  0.21662230  0.63848745  0.73831078     1.05600
O225        O  0.24512366  0.75575060  0.62283817    -0.79200
O226        O  0.12443914  0.70863167  0.71558405    -0.66700
Ni227      Ni  0.29209795  0.85577732  0.85496052     1.34900
C228        C  0.10069936  0.73732010  0.75251468     0.84400
O229        O  0.25956454  0.91822021  0.74850851    -0.79700
O230        O  0.26531139  0.92886980  0.84034628    -0.90000
C231        C  0.24164326  0.80653648  0.61535600     0.83900
O232        O  0.36007921  0.86789908  0.80853107    -0.68200
O233        O  0.21972068  0.65897533  0.69102102    -0.87500
C234        C  0.37584661  0.85056485  0.76131006     0.84800
C235        C  0.25664531  0.94839584  0.79389543     1.06300
H236        H  0.27674480  0.74474248  0.71987353     0.38100
O237        O  0.23911914  0.76032859  0.72554305    -1.10100
O238        O  0.13304757  0.76457857  0.78737164    -0.66800
Ni239      Ni  0.21789182  0.75171742  0.79772959     1.26300
O240        O  0.33713046  0.83079931  0.72797975    -0.67000
O241        O  0.20611950  0.66956424  0.78238085    -0.79300
C242        C  0.21098083  0.79093672  0.91569912     0.84200
O243        O  0.20364061  0.75295780  0.87648655    -0.66500
Ni244      Ni  0.18813619  0.72886930  0.67240450     1.27400
Ni245      Ni  0.25098654  0.83808093  0.73172019     1.26100
H246        H  0.20072436  0.84543477  0.81283828     0.38700
C247        C  0.93423598  0.73733286  0.75406930     0.79900
N248        N  0.99107526  0.75929610  0.75663586    -0.78500
C249        C  0.03636018  0.72413052  0.75790492     0.82300
N250        N  0.02385753  0.67032588  0.74874541    -0.78400
C251        C  0.96919700  0.64918256  0.74404529     0.82400
N252        N  0.92523863  0.68264920  0.74947186    -0.80100
C253        C  0.91392192  0.35640481  0.71089385     0.79900
N254        N  0.96111279  0.35009765  0.74276715    -0.78500
C255        C  0.01480923  0.34488089  0.71857856     0.82300
N256        N  0.02013018  0.34607331  0.66396736    -0.78400
C257        C  0.97374934  0.35269691  0.63285136     0.82400
N258        N  0.92125389  0.35807600  0.65685994    -0.80100
O259        O  0.76041928  0.25172954  0.87749657    -0.81300
O260        O  0.68067489  0.27969791  0.62433788    -0.65900
O261        O  0.73555389  0.27136867  0.77219698    -1.12500
C262        C  0.74502860  0.46216486  0.75380505     1.05600
O263        O  0.70379524  0.36759660  0.60823673    -0.79200
O264        O  0.82829940  0.40132404  0.70798728    -0.66700
Ni265      Ni  0.69834988  0.23015688  0.82465561     1.34900
C266        C  0.85434488  0.36617053  0.73069853     0.84400
O267        O  0.69861480  0.19417360  0.69669931    -0.79700
O268        O  0.72899331  0.16900562  0.77948353    -0.90000
C269        C  0.68620955  0.31908895  0.59119270     0.83900
O270        O  0.63329066  0.21003795  0.78246822    -0.68200
O271        O  0.73410494  0.45038834  0.70273430    -0.87500
C272        C  0.60006600  0.24351343  0.76653215     0.84800
C273        C  0.71156010  0.15791739  0.72971601     1.06300
H274        H  0.67717649  0.36382683  0.71606466     0.38100
O275        O  0.71503919  0.34809458  0.71399029    -1.10100
O276        O  0.82669659  0.33801141  0.76401851    -0.66800
Ni277      Ni  0.74451816  0.34669583  0.78495809     1.26300
O278        O  0.62012215  0.27591562  0.73116306    -0.67000
O279        O  0.75246825  0.42582032  0.78862306    -0.79300
C280        C  0.77207109  0.30205635  0.89327159     0.84200
O281        O  0.76717583  0.34051551  0.86033071    -0.66500
Ni282      Ni  0.76270416  0.38477482  0.66360089     1.27400
Ni283      Ni  0.70356437  0.27260613  0.70182065     1.26100
H284        H  0.77375096  0.25700780  0.76717165     0.38700
C285        C  0.68629630  0.00772515  0.70879666     0.79900
N286        N  0.64048940  0.00630444  0.67444882    -0.78500
C287        C  0.61739350  0.05249306  0.66021801     0.82300
N288        N  0.64245813  0.10034945  0.67862188    -0.78400
C289        C  0.68938148  0.10302364  0.71170663     0.82400
N290        N  0.71040450  0.05647516  0.72867082    -0.80100
O291        O  0.72249158  0.73119452  0.60836687    -0.81300
O292        O  0.79197938  0.80540040  0.85584081    -0.65900
O293        O  0.74106033  0.76999839  0.70778767    -1.12500
C294        C  0.70492746  0.95562101  0.72609086     1.05600
O295        O  0.77339146  0.89302208  0.85883814    -0.79200
O296        O  0.62684691  0.87740756  0.78417536    -0.66700
Ni297      Ni  0.78730547  0.73372202  0.65687441     1.34900
C298        C  0.60410401  0.85107757  0.74348948     0.84400
O299        O  0.78343548  0.70817571  0.78358366    -0.79700
O300        O  0.76271252  0.67128887  0.69823071    -0.90000
C301        C  0.78290144  0.85067398  0.88395367     0.83900
O302        O  0.85748164  0.73655793  0.69616482    -0.68200
O303        O  0.71437378  0.95123829  0.77704429    -0.87500
C304        C  0.88150713  0.76364209  0.73529913     0.84800
C305        C  0.77173850  0.66712450  0.74936304     1.06300
H306        H  0.78510067  0.87722352  0.76204858     0.38100
O307        O  0.74942917  0.85518337  0.76493335    -1.10100
O308        O  0.63696795  0.82502616  0.70927744    -0.66800
Ni309      Ni  0.72231109  0.84054269  0.69349717     1.26300
O310        O  0.85295267  0.79845191  0.76312908    -0.67000
O311        O  0.70483906  0.91587037  0.68924842    -0.79300
C312        C  0.71010046  0.77461127  0.58644010     0.84200
O313        O  0.70892561  0.82073548  0.61493615    -0.66500
Ni314      Ni  0.70192883  0.88685062  0.81810061     1.27400
Ni315      Ni  0.76986144  0.78467031  0.77918785     1.26100
H316        H  0.70442547  0.74950464  0.71012821     0.38700
C317        C  0.20660207  0.77262107  0.97243498     0.79900
N318        N  0.20793702  0.71803343  0.97365513    -0.78500
C319        C  0.22868604  0.69471204  0.01650840     0.82300
N320        N  0.23681129  0.72495755  0.06244420    -0.78400
C321        C  0.23462252  0.77938051  0.06525625     0.82400
N322        N  0.22242937  0.80461616  0.01872939    -0.80100
C323        C  0.79018050  0.32312958  0.95114061     0.79900
N324        N  0.80653643  0.37610437  0.95088020    -0.78500
C325        C  0.79298636  0.41184586  0.99155202     0.82300
N326        N  0.77991205  0.39322266  0.04023797    -0.78400
C327        C  0.77397881  0.33934717  0.04764860     0.82400
N328        N  0.77171242  0.30379019  0.00082650    -0.80100
C329        C  0.74559258  0.84328165  0.93251331     0.79900
N330        N  0.75718015  0.84987894  0.98760944    -0.78500
C331        C  0.71321805  0.83545981  0.02415433     0.82300
N332        N  0.66188258  0.81329292  0.00337490    -0.78400
C333        C  0.65268390  0.80633198  0.94942334     0.82400
N334        N  0.69397696  0.82291579  0.91615145    -0.80100
C335        C  0.50718791  0.26959375  0.24025960     0.79900
N336        N  0.50939970  0.21481010  0.23720901    -0.78500
C337        C  0.46204835  0.18159302  0.22882081     0.82300
N338        N  0.41014635  0.20375845  0.22442567    -0.78400
C339        C  0.40492079  0.25831944  0.22802807     0.82400
N340        N  0.45408915  0.29240531  0.23512408    -0.80100
C341        C  0.24235009  0.60436299  0.27072539     0.79900
N342        N  0.19071282  0.59388510  0.24538615    -0.78500
C343        C  0.16883880  0.54251397  0.23540237     0.82300
N344        N  0.20043794  0.50163943  0.24764210    -0.78400
C345        C  0.25112845  0.50893258  0.27319646     0.82400
N346        N  0.27206859  0.56124358  0.28819424    -0.80100
C347        C  0.17220015  0.24874020  0.57273286     0.79900
N348        N  0.19280242  0.26620975  0.52450427    -0.78500
C349        C  0.15892707  0.25963577  0.47928957     0.82300
N350        N  0.10396795  0.23740433  0.48366094    -0.78400
C351        C  0.08222453  0.22118860  0.53169731     0.82400
N352        N  0.11688177  0.22685401  0.57581005    -0.80100
O353        O  0.74971739  0.93230415  0.47998993    -0.74800
O354        O  0.87427905  0.03775596  0.48698287    -0.74800
O355        O  0.86823068  0.93119666  0.49656428    -0.74900
O356        O  0.76016945  0.03768521  0.47255255    -0.74900
O357        O  0.74740542  0.05478263  0.56086427    -0.74900
O358        O  0.85224717  0.94235506  0.58505714    -0.74800
O359        O  0.86260238  0.05066594  0.57567372    -0.74800
O360        O  0.72806993  0.94841933  0.56668878    -0.74900
Ni361      Ni  0.81352939  0.98347061  0.48127414     1.25400
Ni362      Ni  0.79706192  0.99835554  0.57578422     1.25400
C363        C  0.71270496  0.93047485  0.51878021     0.87400
C364        C  0.88810918  0.06328490  0.53150520     0.87300
C365        C  0.88399538  0.92543501  0.54495041     0.87300
C366        C  0.73816479  0.06534292  0.51219542     0.87500
O367        O  0.53860339  0.92442247  0.97642247    -0.74800
O368        O  0.52151959  0.95163837  0.12792383    -0.74800
O369        O  0.52361888  0.85803178  0.06178806    -0.74900
O370        O  0.53547232  0.01230703  0.04034877    -0.74900
O371        O  0.43925751  0.01110541  0.03144966    -0.74900
O372        O  0.42750935  0.85807334  0.05587058    -0.74800
O373        O  0.42545125  0.95396450  0.11995301    -0.74800
O374        O  0.44247088  0.92231821  0.96831455    -0.74900
Ni375      Ni  0.53310824  0.93560749  0.05255080     1.25400
Ni376      Ni  0.43013169  0.93529935  0.04406113     1.25400
C377        C  0.49360803  0.92950614  0.94794661     0.87400
C378        C  0.47205921  0.96624766  0.14658066     0.87300
C379        C  0.47380926  0.83200004  0.06212705     0.87300
C380        C  0.48946035  0.03546483  0.02673867     0.87500
O381        O  0.11091176  0.59107240  0.87640071    -0.74800
O382        O  0.15033372  0.58273718  0.02030095    -0.74800
O383        O  0.21182618  0.58235544  0.92691579    -0.74900
O384        O  0.05183074  0.59260167  0.97212314    -0.74900
O385        O  0.04278550  0.50246834  0.96630721    -0.74900
O386        O  0.20040570  0.49387258  0.90949612    -0.74800
O387        O  0.14605905  0.49263130  0.00871376    -0.74800
O388        O  0.09355346  0.50309968  0.86705060    -0.74900
Ni389      Ni  0.13247369  0.59055129  0.94878306     1.25400
Ni390      Ni  0.12108026  0.49430282  0.93708052     1.25400
C391        C  0.07947418  0.55084899  0.85810412     0.87400
C392        C  0.14542190  0.53631179  0.03911724     0.87300
C393        C  0.23202406  0.53797348  0.90771700     0.87300
C394        C  0.02223444  0.54884863  0.98111596     0.87500
O395        O  0.51121564  0.61344662  0.87271706    -0.74800
O396        O  0.52682199  0.48327202  0.94137834    -0.74800
O397        O  0.44057336  0.55047262  0.92911470    -0.74900
O398        O  0.59983901  0.54678953  0.88627081    -0.74900
O399        O  0.62603590  0.59243820  0.96323652    -0.74900
O400        O  0.46824751  0.59491071  0.00661033    -0.74800
O401        O  0.55327679  0.52803905  0.01874163    -0.74800
O402        O  0.53648751  0.65953561  0.94982035    -0.74900
Ni403      Ni  0.51903475  0.54678521  0.90447155     1.25400
Ni404      Ni  0.54735989  0.59573207  0.98711347     1.25400
C405        C  0.51912881  0.65810200  0.90082498     0.87400
C406        C  0.53858809  0.48386734  0.99163457     0.87300
C407        C  0.42900106  0.57621852  0.97392047     0.87300
C408        C  0.63845597  0.56206340  0.92158345     0.87500
O409        O  0.91333707  0.51291802  0.57230603    -0.74800
O410        O  0.91954794  0.56275645  0.42963228    -0.74800
O411        O  0.92076664  0.46412184  0.47314279    -0.74900
O412        O  0.90968038  0.61157673  0.52798963    -0.74900
O413        O  0.00601555  0.61848958  0.53651098    -0.74900
O414        O  0.01747202  0.47391526  0.47599090    -0.74800
O415        O  0.01588517  0.57359725  0.43699521    -0.74800
O416        O  0.01006296  0.51944739  0.57672604    -0.74900
Ni417      Ni  0.91223745  0.53743756  0.50068556     1.25400
Ni418      Ni  0.01563757  0.54656573  0.50669928     1.25400
C419        C  0.96071129  0.50817433  0.59836409     0.87400
C420        C  0.96940151  0.57711515  0.40997864     0.87300
C421        C  0.97089123  0.44365744  0.46918157     0.87300
C422        C  0.95658911  0.64051659  0.53693010     0.87500
O423        O  0.39946789  0.08022023  0.50185495    -0.74800
O424        O  0.26088025  0.07021145  0.41933241    -0.74800
O425        O  0.28471762  0.07572354  0.52327377    -0.74900
O426        O  0.37727716  0.07418883  0.39583677    -0.74900
O427        O  0.37683468  0.98417085  0.39018363    -0.74900
O428        O  0.28649214  0.98569530  0.51853016    -0.74800
O429        O  0.25682421  0.98042121  0.41694543    -0.74800
O430        O  0.40142758  0.98996743  0.49599006    -0.74900
Ni431      Ni  0.33065416  0.07822659  0.45945578     1.25400
Ni432      Ni  0.33052006  0.98167537  0.45455167     1.25400
C433        C  0.42261230  0.03667135  0.51368006     0.87400
C434        C  0.23172540  0.02514120  0.41231495     0.87300
C435        C  0.27020108  0.03002046  0.54155438     0.87300
C436        C  0.39800955  0.02982376  0.37616621     0.87500
C437        C  0.95214904  0.13449180  0.57987831    -0.12600
C438        C  0.93375009  0.10803573  0.53101574     0.04400
C439        C  0.95673818  0.12779681  0.48240092    -0.07900
C440        C  0.00198830  0.16759590  0.48428944    -0.08700
C441        C  0.02512059  0.18965968  0.53328366    -0.03200
C442        C  0.99577274  0.17621194  0.58149347     0.03600
N443        N  0.00057501  0.21036810  0.63004360     0.66100
H444        H  0.93120120  0.12413549  0.61733917     0.15000
H445        H  0.02002018  0.18031231  0.44654314     0.14700
N446        N  0.93417883  0.10944576  0.43055773     0.73800
O447        O  0.95997983  0.24203415  0.64007273    -0.39600
O448        O  0.02694061  0.19422916  0.66960724    -0.39600
O449        O  0.91371685  0.14336567  0.40104674    -0.40300
O450        O  0.94754820  0.06385583  0.40948401    -0.40400
C451        C  0.09582456  0.57455526  0.18041295    -0.12600
C452        C  0.11611020  0.52981561  0.20370242     0.04400
C453        C  0.11480437  0.48039640  0.17175437    -0.07900
C454        C  0.12643923  0.48290140  0.11725566    -0.08700
C455        C  0.12956660  0.53351565  0.09532196    -0.03200
C456        C  0.10743047  0.57874123  0.12601481     0.03600
N457        N  0.09778877  0.62906990  0.10369374     0.66100
H458        H  0.08637717  0.61086152  0.20524033     0.15000
H459        H  0.13379868  0.44583213  0.09289038     0.14700
N460        N  0.10709948  0.42856662  0.19379017     0.75200
O461        O  0.04634143  0.63977701  0.09301864    -0.39600
O462        O  0.13552578  0.66747157  0.11062001    -0.39600
O463        O  0.06416525  0.39814971  0.17817024    -0.40300
O464        O  0.14985018  0.40727573  0.21389488    -0.40400
C465        C  0.41768931  0.08745808  0.22534634    -0.12600
C466        C  0.46745956  0.12204610  0.22050067     0.04400
C467        C  0.52094868  0.09892333  0.20538832    -0.07900
C468        C  0.52303884  0.04284965  0.19550681    -0.08700
C469        C  0.47159469  0.00999058  0.19053396    -0.03200
C470        C  0.41904305  0.03208312  0.20958528     0.03600
N471        N  0.36573064  0.00015108  0.20884139     0.66100
H472        H  0.37654711  0.10389562  0.23830746     0.15000
H473        H  0.56415437  0.02709803  0.18151076     0.14700
N474        N  0.57095322  0.13157429  0.19043069     0.73800
O475        O  0.35138942  0.97461581  0.24955804    -0.39600
O476        O  0.32749095  0.00861489  0.17481202    -0.39600
O477        O  0.62059734  0.12124529  0.20702325    -0.40300
O478        O  0.56772708  0.15987656  0.15028216    -0.40400
C479        C  0.54532667  0.78465446  0.93585089    -0.12600
C480        C  0.60365332  0.77446086  0.92319518     0.04400
C481        C  0.61466996  0.74107946  0.87541150    -0.07900
C482        C  0.56886651  0.71474664  0.84675881    -0.08700
C483        C  0.51686194  0.70884652  0.87422746    -0.03200
C484        C  0.50106566  0.75471014  0.90648412     0.03600
N485        N  0.44656207  0.77798587  0.89689814     0.66100
H486        H  0.53510449  0.81843240  0.96337693     0.15000
H487        H  0.57892827  0.68595562  0.81344564     0.14700
N488        N  0.67164311  0.73247480  0.85533010     0.73800
O489        O  0.41899408  0.76358093  0.85430370    -0.39600
O490        O  0.43105235  0.81911074  0.92509264    -0.39600
O491        O  0.70052761  0.69573271  0.87353236    -0.40300
O492        O  0.68419762  0.74912543  0.80978551    -0.40400
C493        C  0.77572064  0.50894444  0.97427111    -0.12600
C494        C  0.75670543  0.45431261  0.97330980     0.04400
C495        C  0.70449646  0.43734338  0.94632699    -0.07900
C496        C  0.67588461  0.47361000  0.91739236    -0.08700
C497        C  0.68960869  0.52923434  0.92448659    -0.03200
C498        C  0.74030828  0.54717825  0.95327499     0.03600
N499        N  0.75421776  0.60364610  0.96411857     0.66100
H500        H  0.81665411  0.52192642  0.99254076     0.15000
H501        H  0.63597457  0.45885371  0.89748259     0.14700
N502        N  0.67682087  0.38475135  0.95201197     0.73800
O503        O  0.74097156  0.62640618  0.00926966    -0.39600
O504        O  0.78782270  0.62834646  0.93260930    -0.39600
O505        O  0.66176344  0.37132505  0.99841555    -0.40300
O506        O  0.65428663  0.35869159  0.91147707    -0.40400
C507        C  0.28009804  0.60855267  0.02477830    -0.12600
C508        C  0.27691976  0.65994926  0.00442949     0.04400
C509        C  0.32569959  0.68309221  0.97788588    -0.07900
C510        C  0.37301572  0.65250218  0.96648682    -0.08700
C511        C  0.37358697  0.59942978  0.98145324    -0.03200
C512        C  0.32759340  0.57683242  0.01112959     0.03600
N513        N  0.32917168  0.52283572  0.02789300     0.66100
H514        H  0.24720201  0.59365557  0.05190721     0.15000
H515        H  0.41037455  0.67104387  0.94667782     0.14700
N516        N  0.32924198  0.73872204  0.96487131     0.73800
O517        O  0.34893176  0.51444893  0.07350299    -0.39600
O518        O  0.31672763  0.48317846  0.99490258    -0.39600
O519        O  0.34790021  0.77508958  0.99892987    -0.40300
O520        O  0.32266418  0.75071402  0.91706558    -0.40400
C521        C  0.46563738  0.06397230  0.60287094    -0.12600
C522        C  0.47291119  0.04086294  0.55024105     0.04400
C523        C  0.52859829  0.02560992  0.53286464    -0.07900
C524        C  0.57473175  0.02970008  0.56941012    -0.08700
C525        C  0.56733539  0.05089697  0.62276573    -0.03200
C526        C  0.51252220  0.07024279  0.63884375     0.03600
N527        N  0.50362113  0.09655482  0.69110266     0.66100
H528        H  0.42339926  0.07800272  0.61582763     0.15000
H529        H  0.61697541  0.01614509  0.55601393     0.14700
N530        N  0.53995828  0.00948593  0.47758876     0.73800
O531        O  0.52580724  0.14356672  0.70162513    -0.39600
O532        O  0.46243207  0.07970560  0.72038159    -0.39600
O533        O  0.57890263  0.03478849  0.45178349    -0.40300
O534        O  0.51432134  0.96773894  0.45562723    -0.40400
C535        C  0.92714249  0.34125253  0.54285622    -0.12600
C536        C  0.97838298  0.35101029  0.57317479     0.04400
C537        C  0.03100467  0.36266855  0.54494968    -0.07900
C538        C  0.02880148  0.36992380  0.48950855    -0.08700
C539        C  0.97533888  0.38386109  0.46913811    -0.03200
C540        C  0.92604662  0.35563629  0.48938796     0.03600
N541        N  0.87222928  0.35187520  0.46100926     0.66100
H542        H  0.88702497  0.32686295  0.56155894     0.15000
H543        H  0.06858352  0.38406880  0.46995762     0.14700
N544        N  0.08291744  0.38095354  0.57262943     0.73800
O545        O  0.86189957  0.31156937  0.42820580    -0.39600
O546        O  0.83061877  0.38004449  0.47806792    -0.39600
O547        O  0.12541941  0.35079717  0.57111974    -0.40300
O548        O  0.09298664  0.43125812  0.58049645    -0.40400
C549        C  0.00733276  0.55868327  0.72314227    -0.12600
C550        C  0.95919810  0.59168803  0.72465752     0.04400
C551        C  0.90704901  0.57045291  0.69891877    -0.07900
C552        C  0.90522909  0.51575816  0.67997367    -0.08700
C553        C  0.95740717  0.49862312  0.65687613    -0.03200
C554        C  0.00749687  0.51228575  0.68817874     0.03600
N555        N  0.06173171  0.48799755  0.67719151     0.66100
H556        H  0.04772826  0.57244712  0.74267823     0.15000
H557        H  0.86533905  0.49902410  0.66140225     0.14700
N558        N  0.86867841  0.60478587  0.67319795     0.73800
O559        O  0.10206344  0.51564295  0.65560648    -0.39600
O560        O  0.07545499  0.45055719  0.70579126    -0.39600
O561        O  0.89094289  0.64396701  0.64895262    -0.40300
O562        O  0.81951339  0.58540287  0.65749220    -0.40400
C563        C  0.18612738  0.97529988  0.65689321    -0.12600
C564        C  0.15417612  0.02048732  0.67501225     0.04400
C565        C  0.14996377  0.06178393  0.63954222    -0.07900
C566        C  0.18946070  0.06575504  0.59696248    -0.08700
C567        C  0.23118797  0.02690382  0.58771651    -0.03200
C568        C  0.23051451  0.98167920  0.61892240     0.03600
N569        N  0.28136252  0.95052995  0.62199708     0.66100
H570        H  0.18680477  0.94028981  0.68053896     0.15000
H571        H  0.18865152  0.10001430  0.57243532     0.14700
N572        N  0.10958479  0.10276436  0.64989222     0.73800
O573        O  0.31761059  0.96268089  0.65905557    -0.39600
O574        O  0.29347890  0.91497463  0.58538737    -0.39600
O575        O  0.12796225  0.15107878  0.66026160    -0.40300
O576        O  0.05684867  0.09223601  0.63834729    -0.40400
C577        C  0.43490385  0.41545672  0.06869119    -0.12600
C578        C  0.41394307  0.38199666  0.02448029     0.04400
C579        C  0.45377685  0.36528436  0.98409738    -0.07900
C580        C  0.51011368  0.38877519  0.98389169    -0.08700
C581        C  0.52352779  0.43422750  0.01892143    -0.03200
C582        C  0.49061062  0.44041526  0.06689546     0.03600
N583        N  0.50924388  0.47769921  0.11033250     0.66100
H584        H  0.40704078  0.42516455  0.10312263     0.15000
H585        H  0.53802900  0.37957339  0.94931840     0.14700
N586        N  0.43858804  0.32351773  0.94416230     0.73800
O587        O  0.48600265  0.52285769  0.11731897    -0.39600
O588        O  0.53788403  0.46058169  0.14813979    -0.39600
O589        O  0.42078594  0.33558246  0.89891005    -0.40300
O590        O  0.45815464  0.27752848  0.94896371    -0.40400
C591        C  0.01082114  0.72691555  0.53146051    -0.12600
C592        C  0.95631357  0.70053726  0.53638251     0.04400
C593        C  0.90829101  0.72544625  0.51571656    -0.07900
C594        C  0.91707166  0.76873813  0.48259781    -0.08700
C595        C  0.97324632  0.78193679  0.46308057    -0.03200
C596        C  0.02109234  0.75821067  0.48731434     0.03600
N597        N  0.07438363  0.74866072  0.45872839     0.66100
H598        H  0.04793435  0.70957139  0.54915723     0.15000
H599        H  0.87928470  0.78644437  0.46652022     0.14700
N600        N  0.85060629  0.70575490  0.52619139     0.73800
O601        O  0.12044289  0.74671984  0.48541331    -0.39600
O602        O  0.07071951  0.72012271  0.41489567    -0.39600
O603        O  0.82627739  0.72238494  0.56926886    -0.40300
O604        O  0.82059134  0.68176963  0.48888914    -0.40400
C605        C  0.48131352  0.08520004  0.34624179    -0.12600
C606        C  0.45416979  0.03356961  0.34615926     0.04400
C607        C  0.48752667  0.98849611  0.33071136    -0.07900
C608        C  0.54750217  0.99619953  0.31998056    -0.08700
C609        C  0.57595100  0.04800870  0.32597077    -0.03200
C610        C  0.54108973  0.09316762  0.33908044     0.03600
N611        N  0.56422185  0.14766327  0.34824798     0.66100
H612        H  0.45647620  0.12073563  0.35606183     0.15000
H613        H  0.57199711  0.96103714  0.30804919     0.14700
N614        N  0.46160274  0.93482957  0.32549779     0.73800
O615        O  0.58455146  0.17203082  0.30891254    -0.39600
O616        O  0.54544204  0.17593448  0.38830656    -0.39600
O617        O  0.45401542  0.91202443  0.27906046    -0.40300
O618        O  0.45846084  0.90656579  0.36589016    -0.40400
C619        C  0.08474420  0.08245122  0.38750511    -0.12600
C620        C  0.06451226  0.04012171  0.35154576     0.04400
C621        C  0.07347938  0.98948396  0.37137258    -0.07900
C622        C  0.13032285  0.98115712  0.39000911    -0.08700
C623        C  0.16779692  0.02741512  0.40230264    -0.03200
C624        C  0.14014867  0.07779962  0.40930867     0.03600
N625        N  0.16485244  0.12214749  0.44198929     0.66100
H626        H  0.06729639  0.12214659  0.38642096     0.15000
H627        H  0.14436039  0.94074258  0.39413805     0.14700
N628        N  0.03200232  0.94597879  0.35975917     0.73800
O629        O  0.19990215  0.15611402  0.42198403    -0.39600
O630        O  0.14840117  0.12926055  0.49032333    -0.39600
O631        O  0.00131408  0.92951092  0.39824889    -0.40300
O632        O  0.01258741  0.93835327  0.31244176    -0.40400
C633        C  0.03599085  0.52938559  0.30374183    -0.12600
C634        C  0.98641801  0.49720812  0.28791837     0.04400
C635        C  0.93139763  0.52132838  0.29148765    -0.07900
C636        C  0.92715681  0.57107309  0.32145234    -0.08700
C637        C  0.97490656  0.59018720  0.35275302    -0.03200
C638        C  0.02984074  0.58025315  0.32987445     0.03600
N639        N  0.08045143  0.61261333  0.34634708     0.66100
H640        H  0.07888612  0.51338419  0.30047371     0.15000
H641        H  0.88418212  0.58491589  0.33201401     0.14700
N642        N  0.87875013  0.49347019  0.27319725     0.73800
O643        O  0.11925636  0.59262959  0.37340070    -0.39600
O644        O  0.09270294  0.65531732  0.32283079    -0.39600
O645        O  0.85459533  0.45855769  0.30189729    -0.40300
O646        O  0.84835756  0.51525756  0.23956131    -0.40400
C647        C  0.55515490  0.99047082  0.81992381    -0.12600
C648        C  0.50265360  0.99318958  0.79201083     0.04400
C649        C  0.45354942  0.00167023  0.82539741    -0.07900
C650        C  0.45068223  0.97794716  0.87489420    -0.08700
C651        C  0.49976429  0.95383141  0.89482808    -0.03200
C652        C  0.55435015  0.96510118  0.86899582     0.03600
N653        N  0.60820571  0.94774958  0.88883344     0.66100
H654        H  0.59592974  0.99346116  0.79774062     0.15000
H655        H  0.41009702  0.97870826  0.89750421     0.14700
N656        N  0.40411647  0.02752367  0.80672959     0.73800
O657        O  0.61183699  0.89909768  0.89958868    -0.39600
O658        O  0.65460938  0.97620873  0.88304440    -0.39600
O659        O  0.37040486  0.00360079  0.77234635    -0.40300
O660        O  0.39490965  0.07544150  0.82387903    -0.40400
C661        C  0.37108327  0.57383327  0.82524897    -0.12600
C662        C  0.36673737  0.52499628  0.79455857     0.04400
C663        C  0.36006149  0.48204956  0.82889210    -0.07900
C664        C  0.31639782  0.48666461  0.86929876    -0.08700
C665        C  0.29117761  0.53765628  0.88077760    -0.03200
C666        C  0.32275699  0.58431371  0.85991518     0.03600
N667        N  0.30372953  0.63922728  0.86274003     0.66100
H668        H  0.39527356  0.60678020  0.80740710     0.15000
H669        H  0.30021088  0.45078734  0.88835468     0.14700
N670        N  0.38662571  0.43182803  0.81564171     0.73800
O671        O  0.33613682  0.67558989  0.84304360    -0.39600
O672        O  0.25182677  0.65022924  0.87292418    -0.39600
O673        O  0.36533455  0.39916510  0.77915330    -0.40300
O674        O  0.43749314  0.42566930  0.83192778    -0.40400
C675        C  0.44140099  0.10987573  0.98352243    -0.12600
C676        C  0.49340759  0.08703012  0.99778031     0.04400
C677        C  0.54595098  0.10768175  0.97488923    -0.07900
C678        C  0.54463599  0.14462125  0.93409538    -0.08700
C679        C  0.49183737  0.16368004  0.91621279    -0.03200
C680        C  0.43995169  0.14792806  0.94416978     0.03600
N681        N  0.38482858  0.16940441  0.93335790     0.66100
H682        H  0.40050004  0.09645094  0.00149588     0.15000
H683        H  0.58542820  0.15750325  0.91558752     0.14700
N684        N  0.60112992  0.09109665  0.99177530     0.73800
O685        O  0.34928057  0.14178659  0.90323280    -0.39600
O686        O  0.36573516  0.20649380  0.96515831    -0.39600
O687        O  0.62663305  0.05456775  0.96416669    -0.40300
O688        O  0.62929903  0.12027952  0.02696771    -0.40400
C689        C  0.93049459  0.61155967  0.85737042    -0.12600
C690        C  0.89507554  0.56394246  0.84997727     0.04400
C691        C  0.92139188  0.51398973  0.84913815    -0.07900
C692        C  0.98114966  0.51178684  0.84320737    -0.08700
C693        C  0.01751796  0.55900186  0.84820205    -0.03200
C694        C  0.99146507  0.60993387  0.85912226     0.03600
N695        N  0.02469344  0.65984887  0.87317497     0.66100
H696        H  0.91091188  0.65060880  0.85967467     0.15000
H697        H  0.99914015  0.47199182  0.83995988     0.14700
N698        N  0.88882669  0.46573345  0.86065495     0.73800
O699        O  0.07055664  0.67278112  0.84790899    -0.39600
O700        O  0.00490088  0.69426543  0.90746004    -0.39600
O701        O  0.88807726  0.42566707  0.82669896    -0.40300
O702        O  0.87740152  0.45799245  0.90927079    -0.40400
C703        C  0.88316150  0.59632811  0.05598387    -0.12600
C704        C  0.86737365  0.55110208  0.08484496     0.04400
C705        C  0.90307096  0.50584066  0.07897271    -0.07900
C706        C  0.95034179  0.50564390  0.04260896    -0.08700
C707        C  0.96643817  0.55085998  0.01349939    -0.03200
C708        C  0.93226423  0.59727132  0.02158320     0.03600
N709        N  0.94560836  0.64615074  0.99576242     0.66100
H710        H  0.85715821  0.63178874  0.06016626     0.15000
H711        H  0.97710217  0.47064955  0.03998808     0.14700
N712        N  0.89681858  0.46243100  0.11400333     0.73800
O713        O  0.90722659  0.66350572  0.96637180    -0.39600
O714        O  0.98260338  0.67993020  0.01717295    -0.39600
O715        O  0.88554958  0.41495318  0.09412806    -0.40300
O716        O  0.92049255  0.46854645  0.15960254    -0.40400
C717        C  0.41532815  0.74642708  0.08773156    -0.12600
C718        C  0.46922026  0.77155513  0.07149327     0.04400
C719        C  0.51752580  0.73647303  0.06779922    -0.07900
C720        C  0.51239503  0.68537683  0.08983945    -0.08700
C721        C  0.46782224  0.67823924  0.12711903    -0.03200
C722        C  0.41484112  0.69354537  0.10705205     0.03600
N723        N  0.36277429  0.66578859  0.12425500     0.66100
H724        H  0.37579459  0.76840473  0.08987229     0.15000
H725        H  0.55119221  0.66271222  0.09360702     0.14700
N726        N  0.57464069  0.75424861  0.05362145     0.73800
O727        O  0.36213771  0.61515224  0.12734936    -0.39600
O728        O  0.32408803  0.69184653  0.14895963    -0.39600
O729        O  0.59920392  0.78991265  0.08501048    -0.40300
O730        O  0.60606131  0.72088327  0.02752266    -0.40400
C731        C  0.56058240  0.85742111  0.51262163    -0.12600
C732        C  0.57454049  0.83184688  0.46255948     0.04400
C733        C  0.59572097  0.86946008  0.42613125    -0.07900
C734        C  0.63964354  0.90680533  0.44671087    -0.08700
C735        C  0.65168797  0.91079622  0.50300359    -0.03200
C736        C  0.60490829  0.89215391  0.53679229     0.03600
N737        N  0.60432841  0.89866992  0.59399963     0.66100
H738        H  0.52887813  0.83764539  0.53826095     0.15000
H739        H  0.66741306  0.92804537  0.41877261     0.14700
N740        N  0.58987262  0.85715442  0.36897863     0.73800
O741        O  0.57119124  0.93305635  0.61544747    -0.39600
O742        O  0.60855988  0.85614564  0.61813221    -0.39600
O743        O  0.62698791  0.87568143  0.33629681    -0.40300
O744        O  0.55027763  0.82379555  0.35129188    -0.40400
C745        C  0.66612202  0.17062462  0.43906874    -0.12600
C746        C  0.62308463  0.18811095  0.47673442     0.04400
C747        C  0.61588036  0.16089394  0.52450532    -0.07900
C748        C  0.65670569  0.12384923  0.53700319    -0.08700
C749        C  0.70072800  0.10898104  0.50061064    -0.03200
C750        C  0.70769231  0.13515873  0.45256065     0.03600
N751        N  0.76322438  0.13788945  0.42551329     0.66100
H752        H  0.67388779  0.19054386  0.40213243     0.15000
H753        H  0.65510799  0.10743826  0.57582344     0.14700
N754        N  0.57118582  0.17508547  0.56291473     0.73800
O755        O  0.78068831  0.09844018  0.39592817    -0.39600
O756        O  0.79500991  0.18082791  0.43108586    -0.39600
O757        O  0.52005557  0.18142618  0.54731791    -0.40300
O758        O  0.58335415  0.18403004  0.61213985    -0.40400
C759        C  0.98760587  0.94328084  0.52500671    -0.12600
C760        C  0.94595060  0.91179499  0.55223775     0.04400
C761        C  0.96589770  0.87253098  0.58518125    -0.07900
C762        C  0.02533470  0.85957809  0.58263408    -0.08700
C763        C  0.06622691  0.88866460  0.55141930    -0.03200
C764        C  0.04754046  0.93491041  0.52712726     0.03600
N765        N  0.08795822  0.97616534  0.50853136     0.66100
H766        H  0.97311886  0.97653831  0.50318764     0.15000
H767        H  0.03943407  0.82622776  0.60454134     0.14700
N768        N  0.92708548  0.84605202  0.62133265     0.73800
O769        O  0.06926629  0.02065493  0.49570839    -0.39600
O770        O  0.14210012  0.97297864  0.51403078    -0.39600
O771        O  0.92373391  0.79504369  0.62010834    -0.40300
O772        O  0.90709153  0.87296564  0.66177251    -0.40400
loop_ 
_geom_bond_atom_site_label_1 
_geom_bond_atom_site_label_2 
_geom_bond_distance 
_geom_bond_site_symmetry_2 
_ccdc_geom_bond_type 
C1            N2   1.366       .  A
C1            N6   1.372       .  A
C1          C231   1.496       .  S
N2            C3   1.359       .  A
C3            N4   1.360       .  A
C3          C763   1.497       .  S
N4            C5   1.361       .  A
C5            N6   1.375       .  A
C5           C96   1.490       .  S
C7            N8   1.348       .  A
C7           N12   1.412       .  A
C7          C269   1.554       .  S
N8            C9   1.354       .  A
C9           N10   1.354       .  A
C9          C746   1.489       .  S
N10          C11   1.352       .  A
C11          N12   1.412       .  A
C11         C132   1.555       .  S
C13          N14   1.351       .  A
C13          N18   1.394       .  A
C13         C312   1.521       .  S
N14          C15   1.362       .  A
C15          N16   1.355       .  A
C15         C732   1.503       .  S
N16          C17   1.349       .  A
C17          N18   1.390       .  A
C17         C165   1.516       .  S
C19          N20   1.355       .  A
C19          N24   1.403       .  A
C19         C158   1.537       .  S
N20          C21   1.357       .  A
C21          N22   1.354       .  A
C21         C721   1.511       .  S
N22          C23   1.351       .  A
C23          N24   1.401       .  A
C23         C106   1.539       .  S
C25          N26   1.365       .  A
C25          N30   1.386       .  A
C25         C172   1.511       .  S
N26          C27   1.360       .  A
C27          N28   1.351       .  A
C27         C704   1.500       .  S
N28          C29   1.359       .  A
C29          N30   1.383       .  A
C29         C122   1.505       .  S
C31          N32   1.381       .  A
C31          N36   1.353       .  A
C31         C305   1.480       .  S
N32          C33   1.377       .  A
C33          N34   1.354       .  A
C33         C262   1.490       .  S
N34          C35   1.346       .  A
C35          N36   1.344       .  A
C35         C690   1.479       .  S
C37          N38   1.376       .  A
C37          N42   1.370       .  A
C37         C272   1.511       .  S
N38          C39   1.358       .  A
C39          N40   1.347       .  A
C39         C679   1.513       .  S
N40          C41   1.356       .  A
C41          N42   1.380       .  A
C41         C192   1.470       .  S
C43          N44   1.361       .  A
C43          N48   1.408       .  A
C43         C224   1.568       .  S
N44          C45   1.370       .  A
C45          N46   1.347       .  A
C45         C662   1.511       .  S
N46          C47   1.343       .  A
C47          N48   1.409       .  A
C47         C202   1.539       .  S
C49          N50   1.407       .  A
C49          N54   1.354       .  A
C49         C298   1.541       .  S
N50          C51   1.408       .  A
C51          N52   1.348       .  A
C51         C234   1.537       .  S
N52          C53   1.348       .  A
C53          N54   1.350       .  A
C53         C648   1.498       .  S
C55          N56   1.382       .  A
C55          N60   1.356       .  A
C55         C140   1.491       .  S
N56          C57   1.382   1_655  A
C57          N58   1.352       .  A
C57          C74   1.493       .  S
N58          C59   1.348   1_455  A
C59          N60   1.342       .  A
C59         C634   1.473       .  S
O61         Ni67   1.920       .  S
O61          C82   1.273       .  A
O62         Ni85   1.919       .  S
O62          C71   1.279       .  A
O63         Ni67   1.916       .  S
O63         Ni85   1.933       .  S
O63         Ni79   1.963       .  S
O63          H86   0.967       .  S
C64         C185   1.492       .  S
C64          O81   1.301       .  A
C64          O73   1.270       .  A
O65         Ni84   1.929       .  S
O65          C71   1.269       .  A
O66         Ni84   1.919       .  S
O66          C68   1.277       .  A
Ni67         O70   1.927       .  S
Ni67         O72   1.934       .  S
C68         C339   1.486       .  S
C68          O78   1.276       .  A
O69         Ni85   1.955       .  S
O69          C75   1.282       .  A
O70          C75   1.268       .  A
C71          C89   1.478       .  S
O72          C74   1.284       .  A
O73         Ni84   1.917       .  S
C74          O80   1.274       .  A
C75         C349   1.500       .  S
H76          O77   0.967       .  S
O77         Ni85   1.917       .  S
O77         Ni79   1.904       .  S
O77         Ni84   1.895       .  S
O78         Ni79   1.949       .  S
Ni79         O83   1.955       .  S
Ni79         O81   1.985       .  S
O80         Ni85   1.947       .  S
C82         C345   1.472       .  S
C82          O83   1.284       .  A
C87          N88   1.373       .  A
C87          N92   1.346       .  A
C87         C114   1.483   1_545  S
N88          C89   1.376       .  A
C89          N90   1.351       .  A
N90          C91   1.351       .  A
C91          N92   1.354       .  A
C91         C620   1.492       .  S
O93         Ni99   1.943       .  S
O93         C114   1.290       .  A
O94        Ni117   1.992       .  S
O94         C103   1.302       .  A
O95         Ni99   1.891       .  S
O95        Ni117   1.859       .  S
O95        Ni111   1.882       .  S
O95         H118   0.966       .  S
C96         O113   1.308       .  A
C96         O105   1.299       .  A
O97        Ni116   1.921       .  S
O97         C103   1.282       .  A
O98        Ni116   1.900       .  S
O98         C100   1.262       .  A
Ni99        O102   1.987       .  S
Ni99        O104   1.980       .  S
C100        C179   1.520       .  S
C100        O110   1.280       .  A
O101       Ni117   1.928       .  S
O101        C107   1.299       .  A
O102        C107   1.299       .  A
C103        C341   1.505       .  S
O104        C106   1.276       .  A
O105       Ni116   1.950       .  S
C106        O112   1.280       .  A
C107        C321   1.505       .  S
H108        O109   0.968       .  S
O109       Ni117   1.871       .  S
O109       Ni111   1.885       .  S
O109       Ni116   1.856       .  S
O110       Ni111   2.004       .  S
Ni111       O115   1.958       .  S
Ni111       O113   1.976       .  S
O112       Ni117   1.967       .  S
C114        O115   1.304       .  A
O119       Ni125   1.942       .  S
O119        C140   1.293       .  A
O120       Ni143   1.921       .  S
O120        C129   1.291       .  A
O121       Ni125   1.902       .  S
O121       Ni143   1.853       .  S
O121       Ni137   1.899       .  S
O121        H144   0.967       .  S
C122        O139   1.299       .  A
C122        O131   1.311       .  A
O123       Ni142   1.959       .  S
O123        C129   1.296       .  A
O124       Ni142   1.927       .  S
O124        C126   1.267       .  A
Ni125       O128   2.003       .  S
Ni125       O130   1.967       .  S
C126        C327   1.540       .  S
C126        O136   1.295       .  A
O127       Ni143   1.950       .  S
O127        C133   1.301       .  A
O128        C133   1.305       .  A
C129        C335   1.498       .  S
O130        C132   1.272       .  A
O131       Ni142   2.000       .  S
C132        O138   1.288       .  A
C133        C147   1.525       .  S
H134        O135   0.969       .  S
O135       Ni143   1.893       .  S
O135       Ni137   1.868       .  S
O135       Ni142   1.884       .  S
O136       Ni137   2.024       .  S
Ni137       O141   1.937       .  S
Ni137       O139   1.943       .  S
O138       Ni143   2.005       .  S
C140        O141   1.299       .  A
C145        N146   1.396       .  A
C145        N150   1.361       .  A
C145        C161   1.515   1_545  S
N146        C147   1.392       .  A
C147        N148   1.353       .  A
N148        C149   1.344       .  A
C149        N150   1.354       .  A
C149        C609   1.497       .  S
O151       Ni157   1.942       .  S
O151        C172   1.289       .  A
O152       Ni175   2.016       .  S
O152        C161   1.316       .  A
O153       Ni157   1.866       .  S
O153       Ni175   1.885       .  S
O153       Ni169   1.909       .  S
O153        H176   0.965       .  S
C154        C331   1.551       .  S
C154        O171   1.308       .  A
C154        O163   1.309       .  A
O155       Ni174   1.927       .  S
O155        C161   1.293       .  A
O156       Ni174   1.952       .  S
O156        C158   1.270       .  A
Ni157       O160   1.975       .  S
Ni157       O162   1.906       .  S
C158        O168   1.286       .  A
O159       Ni175   2.003       .  S
O159        C165   1.317       .  A
O160        C165   1.305       .  A
O162        C164   1.265       .  A
O163       Ni174   2.011       .  S
C164        C177   1.522       .  S
C164        O170   1.293       .  A
H166        O167   0.970       .  S
O167       Ni175   1.917       .  S
O167       Ni169   1.884       .  S
O167       Ni174   1.890       .  S
O168       Ni169   1.982       .  S
Ni169       O173   1.986       .  S
Ni169       O171   1.997       .  S
O170       Ni175   2.013       .  S
C172        O173   1.303       .  A
C177        N178   1.399       .  A
C177        N182   1.360       .  A
N178        C179   1.397   1_655  A
C179        N180   1.355       .  A
N180        C181   1.343   1_455  A
C181        N182   1.353       .  A
C181        C595   1.495       .  S
C183        N184   1.386   1_556  A
C183        N188   1.362       .  A
C183        C210   1.520       .  S
N184        C185   1.387       .  A
C185        N186   1.344       .  A
N186        C187   1.346       .  A
C187        N188   1.362   1_554  A
C187        C578   1.475       .  S
O189       Ni195   1.989       .  S
O189        C210   1.295       .  A
O190       Ni213   1.916       .  S
O190        C199   1.271       .  A
O191       Ni195   1.931       .  S
O191       Ni213   1.908       .  S
O191       Ni207   1.938       .  S
O191        H214   0.963       .  S
C192        O209   1.288       .  A
C192        O201   1.277       .  A
O193       Ni212   1.963       .  S
O193        C199   1.282       .  A
O194       Ni212   1.952       .  S
O194        C196   1.279       .  A
Ni195       O198   1.970       .  S
Ni195       O200   1.974       .  S
C196        C219   1.545       .  S
C196        O206   1.301       .  A
O197       Ni213   1.882       .  S
O197        C203   1.269       .  A
O198        C203   1.284       .  A
C199        C347   1.488       .  S
O200        C202   1.283       .  A
O201       Ni212   1.928       .  S
C202        O208   1.293       .  A
C203        C255   1.481       .  S
H204        O205   0.973       .  S
O205       Ni213   1.900       .  S
O205       Ni207   1.904       .  S
O205       Ni212   1.910       .  S
O206       Ni207   2.023       .  S
Ni207       O211   1.948       .  S
Ni207       O209   1.936       .  S
O208       Ni213   1.990       .  S
C210        O211   1.288       .  A
C215        N216   1.347   1_545  A
C215        N220   1.406       .  A
C215        C235   1.542   1_545  S
N216        C217   1.347   1_565  A
C217        N218   1.358       .  A
C217        C564   1.490       .  S
N218        C219   1.356       .  A
C219        N220   1.408       .  A
O221       Ni227   1.953       .  S
O221        C242   1.294       .  A
O222       Ni245   1.947       .  S
O222        C231   1.293       .  A
O223       Ni227   1.881       .  S
O223       Ni245   1.857       .  S
O223       Ni239   1.913       .  S
O223        H246   0.966       .  S
C224        O241   1.322       .  A
C224        O233   1.311       .  A
O225       Ni244   1.915       .  S
O225        C231   1.290       .  A
O226       Ni244   1.874       .  S
O226        C228   1.257       .  A
Ni227       O230   1.996       .  S
Ni227       O232   1.955       .  S
C228        C249   1.506       .  S
C228        O238   1.284       .  A
O229       Ni245   2.001       .  S
O229        C235   1.313       .  A
O230        C235   1.303       .  A
O232        C234   1.277       .  A
O233       Ni244   1.992       .  S
C234        O240   1.281       .  A
H236        O237   0.968       .  S
O237       Ni245   1.928       .  S
O237       Ni239   1.877       .  S
O237       Ni244   1.882       .  S
O238       Ni239   2.013       .  S
Ni239       O243   1.980       .  S
Ni239       O241   2.050       .  S
O240       Ni245   1.997       .  S
C242        C317   1.511       .  S
C242        O243   1.315       .  A
C247        N248   1.392       .  A
C247        N252   1.357       .  A
C247        C304   1.497       .  S
N248        C249   1.390   1_655  A
C249        N250   1.354       .  A
N250        C251   1.342   1_455  A
C251        N252   1.336       .  A
C251        C550   1.480       .  S
C253        N254   1.372       .  A
C253        N258   1.355       .  A
C253        C266   1.474       .  S
N254        C255   1.374   1_655  A
C255        N256   1.364       .  A
N256        C257   1.348   1_455  A
C257        N258   1.348       .  A
C257        C536   1.484       .  S
O259       Ni265   1.982       .  S
O259        C280   1.298       .  A
O260       Ni283   2.024       .  S
O260        C269   1.319       .  A
O261       Ni265   1.882       .  S
O261       Ni283   1.909       .  S
O261       Ni277   1.873       .  S
O261        H284   0.966       .  S
C262        O279   1.308       .  A
C262        O271   1.308       .  A
O263       Ni282   1.955       .  S
O263        C269   1.294       .  A
O264       Ni282   1.893       .  S
O264        C266   1.248       .  A
Ni265       O268   1.975       .  S
Ni265       O270   1.867       .  S
C266        O276   1.265       .  A
O267       Ni283   1.936       .  S
O267        C273   1.303       .  A
O268        C273   1.313       .  A
O270        C272   1.240       .  A
O271       Ni282   1.972       .  S
C272        O278   1.296       .  A
C273        C289   1.472       .  S
H274        O275   0.969       .  S
O275       Ni283   1.880       .  S
O275       Ni277   1.901       .  S
O275       Ni282   1.903       .  S
O276       Ni277   1.971       .  S
Ni277       O281   1.969       .  S
Ni277       O279   1.955       .  S
O278       Ni283   2.047       .  S
C280        C323   1.552       .  S
C280        O281   1.307       .  A
C285        N286   1.362       .  A
C285        N290   1.368       .  A
C285        C294   1.471   1_545  S
N286        C287   1.353       .  A
C287        N288   1.347       .  A
C287        C525   1.487       .  S
N288        C289   1.361       .  A
C289        N290   1.365       .  A
O291       Ni297   1.925       .  S
O291        C312   1.283       .  A
O292       Ni315   2.005       .  S
O292        C301   1.304       .  A
O293       Ni297   1.855       .  S
O293       Ni315   1.908       .  S
O293       Ni309   1.876       .  S
O293        H316   0.966       .  S
C294        O311   1.298       .  A
C294        O303   1.301       .  A
O295       Ni314   1.935       .  S
O295        C301   1.285       .  A
O296       Ni314   1.928       .  S
O296        C298   1.270       .  A
Ni297       O300   1.971       .  S
Ni297       O302   1.892       .  S
C298        O308   1.291       .  A
O299       Ni315   1.944       .  S
O299        C305   1.301       .  A
O300        C305   1.302       .  A
C301        C329   1.488       .  S
O302        C304   1.262       .  A
O303       Ni314   1.958       .  S
C304        O310   1.270       .  A
H306        O307   0.968       .  S
O307       Ni315   1.886       .  S
O307       Ni309   1.896       .  S
O307       Ni314   1.860       .  S
O308       Ni309   2.020       .  S
Ni309       O313   2.005       .  S
Ni309       O311   1.936       .  S
O310       Ni315   1.965       .  S
C312        O313   1.304       .  A
C317        N318   1.356       .  A
C317        N322   1.395   1_556  A
N318        C319   1.348   1_556  A
C319        N320   1.333       .  A
C319        C508   1.451       .  S
N320        C321   1.348       .  A
C321        N322   1.389       .  A
C323        N324   1.348       .  A
C323        N328   1.408   1_556  A
N324        C325   1.342       .  A
C325        N326   1.349   1_556  A
C325        C494   1.471       .  S
N326        C327   1.359       .  A
C327        N328   1.411       .  A
C329        N330   1.396       .  A
C329        N334   1.325       .  A
N330        C331   1.400   1_556  A
C331        N332   1.370       .  A
N332        C333   1.359   1_554  A
C333        N334   1.320       .  A
C333        C480   1.478       .  S
C335        N336   1.357       .  A
C335        N340   1.380       .  A
N336        C337   1.343       .  A
C337        N338   1.345       .  A
C337        C466   1.486       .  S
N338        C339   1.359       .  A
C339        N340   1.384       .  A
C341        N342   1.357       .  A
C341        N346   1.390       .  A
N342        C343   1.354       .  A
C343        N344   1.327       .  A
C343        C452   1.464       .  S
N344        C345   1.333       .  A
C345        N346   1.389       .  A
C347        N348   1.373       .  A
C347        N352   1.362       .  A
N348        C349   1.372       .  A
C349        N350   1.360       .  A
N350        C351   1.367       .  A
C351        N352   1.359       .  A
C351        C441   1.497       .  S
O353       Ni361   1.892       .  S
O353        C363   1.280       .  A
O354       Ni361   1.892   1_545  S
O354        C364   1.273       .  A
O355       Ni361   1.906       .  S
O355        C365   1.280       .  A
O356       Ni361   1.885   1_545  S
O356        C366   1.275       .  A
O357       Ni362   1.903   1_545  S
O357        C366   1.277       .  A
O358       Ni362   1.949       .  S
O358        C365   1.287       .  A
O359       Ni362   1.940   1_545  S
O359        C364   1.288       .  A
O360       Ni362   1.970       .  S
O360        C363   1.291       .  A
Ni361      Ni362   2.382       .  S
C363        C735   1.511       .  S
C364        C438   1.490       .  S
C365        C760   1.495       .  S
C366        C749   1.458       .  S
O367       Ni375   1.898   1_556  S
O367        C377   1.276       .  A
O368       Ni375   1.907       .  S
O368        C378   1.281       .  A
O369       Ni375   1.951       .  S
O369        C379   1.287       .  A
O370       Ni375   1.941   1_545  S
O370        C380   1.286       .  A
O371       Ni376   1.925   1_545  S
O371        C380   1.284       .  A
O372       Ni376   1.952       .  S
O372        C379   1.287       .  A
O373       Ni376   1.915       .  S
O373        C378   1.280       .  A
O374       Ni376   1.909   1_556  S
O374        C377   1.283       .  A
Ni375      Ni376   2.379       .  S
C377        C651   1.490       .  S
C378        C469   1.486   1_565  S
C379        C718   1.529       .  S
C380        C676   1.506   1_554  S
O381       Ni389   1.874       .  S
O381        C391   1.265       .  A
O382       Ni389   1.855   1_554  S
O382        C392   1.270       .  A
O383       Ni389   1.913       .  S
O383        C393   1.274       .  A
O384       Ni389   1.937       .  S
O384        C394   1.283       .  A
O385       Ni390   1.946       .  S
O385        C394   1.291       .  A
O386       Ni390   1.940       .  S
O386        C393   1.286       .  A
O387       Ni390   1.882   1_554  S
O387        C392   1.278       .  A
O388       Ni390   1.890       .  S
O388        C391   1.275       .  A
Ni389      Ni390   2.384       .  S
C391        C693   1.474       .  S
C392        C455   1.445       .  S
C393        C665   1.508       .  S
C394        C707   1.507   1_456  S
O395       Ni403   1.894       .  S
O395        C405   1.274       .  A
O396       Ni403   1.890       .  S
O396        C406   1.281       .  A
O397       Ni403   1.902       .  S
O397        C407   1.277       .  A
O398       Ni403   1.906       .  S
O398        C408   1.283       .  A
O399       Ni404   1.900       .  S
O399        C408   1.276       .  A
O400       Ni404   1.876   1_554  S
O400        C407   1.272   1_554  A
O401       Ni404   1.910   1_554  S
O401        C406   1.279   1_554  A
O402       Ni404   1.913       .  S
O402        C405   1.284       .  A
Ni403      Ni404   2.395       .  S
C405        C483   1.462       .  S
C406        C581   1.469   1_556  S
C407        C511   1.427       .  S
C408        C497   1.466       .  S
O409       Ni417   1.920       .  S
O409        C419   1.288       .  A
O410       Ni417   1.917       .  S
O410        C420   1.284       .  A
O411       Ni417   1.914       .  S
O411        C421   1.280       .  A
O412       Ni417   1.917       .  S
O412        C422   1.280       .  A
O413       Ni418   1.904       .  S
O413        C422   1.283   1_455  A
O414       Ni418   1.908       .  S
O414        C421   1.284   1_455  A
O415       Ni418   1.899       .  S
O415        C420   1.279   1_455  A
O416       Ni418   1.908       .  S
O416        C419   1.276   1_455  A
Ni417      Ni418   2.382   1_655  S
C419        C553   1.490       .  S
C420        C637   1.483       .  S
C421        C539   1.489       .  S
C422        C592   1.487       .  S
O423       Ni431   1.909       .  S
O423        C433   1.278       .  A
O424       Ni431   1.895       .  S
O424        C434   1.277       .  A
O425       Ni431   1.898       .  S
O425        C435   1.276       .  A
O426       Ni431   1.899       .  S
O426        C436   1.282       .  A
O427       Ni432   1.914       .  S
O427        C436   1.278   1_565  A
O428       Ni432   1.874       .  S
O428        C435   1.273   1_565  A
O429       Ni432   1.943       .  S
O429        C434   1.285   1_565  A
O430       Ni432   1.935       .  S
O430        C433   1.285   1_565  A
Ni431      Ni432   2.385   1_545  S
C433        C522   1.475       .  S
C434        C623   1.498       .  S
C435        C567   1.451       .  S
C436        C606   1.485       .  S
C437        C438   1.401       .  A
C437        C442   1.404       .  A
C437        H444   1.084       .  S
C438        C439   1.421       .  A
C439        C440   1.398   1_655  A
C439        N446   1.433       .  S
C440        C441   1.402       .  A
C440        H445   1.081       .  S
C441        C442   1.419   1_455  A
C442        N443   1.429   1_655  S
N443        O447   1.258   1_455  A
N443        O448   1.259       .  A
N446        O450   1.262       .  A
N446        O449   1.262       .  A
C451        C452   1.386       .  A
C451        C456   1.385       .  A
C451        H458   1.085       .  S
C452        C453   1.412       .  A
C453        C454   1.383       .  A
C453        N460   1.431       .  S
C454        C455   1.398       .  A
C454        H459   1.084       .  S
C455        C456   1.422       .  A
C456        N457   1.425       .  S
N457        O461   1.259       .  A
N457        O462   1.261       .  A
N460        O464   1.261       .  A
N460        O463   1.262       .  A
C465        C466   1.405       .  A
C465        C470   1.402       .  A
C465        H472   1.084       .  S
C466        C467   1.416       .  A
C467        C468   1.396       .  A
C467        N474   1.434       .  S
C468        C469   1.405       .  A
C468        H473   1.084       .  S
C469        C470   1.412       .  A
C470        N471   1.426       .  S
N471        O475   1.262   1_545  A
N471        O476   1.262       .  A
N474        O478   1.263       .  A
N474        O477   1.261       .  A
C479        C480   1.404       .  A
C479        C484   1.412       .  A
C479        H486   1.077       .  S
C480        C481   1.428       .  A
C481        C482   1.390       .  A
C481        N488   1.416       .  S
C482        C483   1.376       .  A
C482        H487   1.086       .  S
C483        C484   1.405       .  A
C484        N485   1.433       .  S
N485        O489   1.263       .  A
N485        O490   1.260       .  A
N488        O492   1.257       .  A
N488        O491   1.262       .  A
C493        C494   1.401       .  A
C493        C498   1.407       .  A
C493        H500   1.076       .  S
C494        C495   1.415       .  A
C495        C496   1.382       .  A
C495        N502   1.437       .  S
C496        C497   1.398       .  A
C496        H501   1.084       .  S
C497        C498   1.413       .  A
C498        N499   1.428       .  S
N499        O503   1.262   1_556  A
N499        O504   1.261       .  A
N502        O506   1.263       .  A
N502        O505   1.262       .  A
C507        C508   1.406       .  A
C507        C512   1.400       .  A
C507        H514   1.076       .  S
C508        C509   1.412   1_554  A
C509        C510   1.370       .  A
C509        N516   1.434       .  S
C510        C511   1.390       .  A
C510        H515   1.083       .  S
C511        C512   1.398   1_556  A
C512        N513   1.429       .  S
N513        O517   1.261       .  A
N513        O518   1.261   1_554  A
N516        O520   1.257       .  A
N516        O519   1.258       .  A
C521        C522   1.404       .  A
C521        C526   1.405       .  A
C521        H528   1.084       .  S
C522        C523   1.406       .  A
C523        C524   1.401       .  A
C523        N530   1.429       .  S
C524        C525   1.405       .  A
C524        H529   1.083       .  S
C525        C526   1.412       .  A
C526        N527   1.430       .  S
N527        O531   1.261       .  A
N527        O532   1.260       .  A
N530        O534   1.260   1_545  A
N530        O533   1.262       .  A
C535        C536   1.409       .  A
C535        C540   1.400       .  A
C535        H542   1.084       .  S
C536        C537   1.418   1_655  A
C537        C538   1.404       .  A
C537        N544   1.425       .  S
C538        C539   1.402   1_455  A
C538        H543   1.085       .  S
C539        C540   1.409       .  A
C540        N541   1.428       .  S
N541        O545   1.261       .  A
N541        O546   1.262       .  A
N544        O548   1.259       .  A
N544        O547   1.256       .  A
C549        C550   1.405   1_455  A
C549        C554   1.393       .  A
C549        H556   1.083       .  S
C550        C551   1.427       .  A
C551        C552   1.402       .  A
C551        N558   1.438       .  S
C552        C553   1.395       .  A
C552        H557   1.084       .  S
C553        C554   1.413   1_655  A
C554        N555   1.425       .  S
N555        O559   1.262       .  A
N555        O560   1.259       .  A
N558        O562   1.263       .  A
N558        O561   1.261       .  A
C563        C564   1.412   1_565  A
C563        C568   1.392       .  A
C563        H570   1.080       .  S
C564        C565   1.402       .  A
C565        C566   1.391       .  A
C565        N572   1.416       .  S
C566        C567   1.396       .  A
C566        H571   1.078       .  S
C567        C568   1.404   1_545  A
C568        N569   1.436       .  S
N569        O573   1.262       .  A
N569        O574   1.261       .  A
N572        O576   1.260       .  A
N572        O575   1.261       .  A
C577        C578   1.407       .  A
C577        C582   1.397       .  A
C577        H584   1.083       .  S
C578        C579   1.405   1_554  A
C579        C580   1.395       .  A
C579        N586   1.419       .  S
C580        C581   1.401   1_556  A
C580        H585   1.084       .  S
C581        C582   1.408       .  A
C582        N583   1.429       .  S
N583        O587   1.262       .  A
N583        O588   1.262       .  A
N586        O590   1.257       .  A
N586        O589   1.261       .  A
C591        C592   1.393   1_455  A
C591        C596   1.397       .  A
C591        H598   1.084       .  S
C592        C593   1.408       .  A
C593        C594   1.401       .  A
C593        N600   1.418       .  S
C594        C595   1.406       .  A
C594        H599   1.084       .  S
C595        C596   1.429   1_655  A
C596        N597   1.430       .  S
N597        O601   1.261       .  A
N597        O602   1.260       .  A
N600        O604   1.262       .  A
N600        O603   1.255       .  A
C605        C606   1.396       .  A
C605        C610   1.390       .  A
C605        H612   1.084       .  S
C606        C607   1.413   1_545  A
C607        C608   1.407       .  A
C607        N614   1.429       .  S
C608        C609   1.412   1_565  A
C608        H613   1.082       .  S
C609        C610   1.424       .  A
C610        N611   1.432       .  S
N611        O615   1.257       .  A
N611        O616   1.262       .  A
N614        O618   1.262       .  A
N614        O617   1.261       .  A
C619        C620   1.397       .  A
C619        C624   1.403       .  A
C619        H626   1.081       .  S
C620        C621   1.403   1_545  A
C621        C622   1.420       .  A
C621        N628   1.422       .  S
C622        C623   1.419   1_565  A
C622        H627   1.077       .  S
C623        C624   1.426       .  A
C624        N625   1.422       .  S
N625        O629   1.260       .  A
N625        O630   1.259       .  A
N628        O632   1.263       .  A
N628        O631   1.260       .  A
C633        C634   1.404   1_455  A
C633        C638   1.390       .  A
C633        H640   1.080       .  S
C634        C635   1.423       .  A
C635        C636   1.402       .  A
C635        N642   1.428       .  S
C636        C637   1.399       .  A
C636        H641   1.084       .  S
C637        C638   1.404   1_655  A
C638        N639   1.429       .  S
N639        O643   1.263       .  A
N639        O644   1.261       .  A
N642        O646   1.261       .  A
N642        O645   1.262       .  A
C647        C648   1.406       .  A
C647        C652   1.409       .  A
C647        H654   1.084       .  S
C648        C649   1.408   1_565  A
C649        C650   1.398   1_545  A
C649        N656   1.427       .  S
C650        C651   1.411       .  A
C650        H655   1.083       .  S
C651        C652   1.427       .  A
C652        N653   1.433       .  S
N653        O657   1.258       .  A
N653        O658   1.263       .  A
N656        O660   1.260       .  A
N656        O659   1.260       .  A
C661        C662   1.386       .  A
C661        C666   1.420       .  A
C661        H668   1.082       .  S
C662        C663   1.409       .  A
C663        C664   1.414       .  A
C663        N670   1.428       .  S
C664        C665   1.424       .  A
C664        H669   1.083       .  S
C665        C666   1.457       .  A
C666        N667   1.445       .  S
N667        O671   1.262       .  A
N667        O672   1.255       .  A
N670        O674   1.261       .  A
N670        O673   1.262       .  A
C675        C676   1.406       .  A
C675        C680   1.405       .  A
C675        H682   1.084   1_556  S
C676        C677   1.417       .  A
C677        C678   1.412       .  A
C677        N684   1.428       .  S
C678        C679   1.410       .  A
C678        H683   1.083       .  S
C679        C680   1.425       .  A
C680        N681   1.432       .  S
N681        O685   1.261       .  A
N681        O686   1.262       .  A
N684        O688   1.262   1_556  A
N684        O687   1.260       .  A
C689        C690   1.404       .  A
C689        C694   1.405       .  A
C689        H696   1.083       .  S
C690        C691   1.401       .  A
C691        C692   1.383       .  A
C691        N698   1.424       .  S
C692        C693   1.404   1_655  A
C692        H697   1.084       .  S
C693        C694   1.429   1_455  A
C694        N695   1.447   1_655  S
N695        O699   1.260       .  A
N695        O700   1.260       .  A
N698        O702   1.259       .  A
N698        O701   1.258       .  A
C703        C704   1.401       .  A
C703        C708   1.408       .  A
C703        H710   1.084       .  S
C704        C705   1.418       .  A
C705        C706   1.405       .  A
C705        N712   1.429       .  S
C706        C707   1.406       .  A
C706        H711   1.084       .  S
C707        C708   1.424       .  A
C708        N709   1.427   1_554  S
N709        O713   1.261       .  A
N709        O714   1.261   1_556  A
N712        O716   1.261       .  A
N712        O715   1.261       .  A
C717        C718   1.426       .  A
C717        C722   1.424       .  A
C717        H724   1.080       .  S
C718        C719   1.440       .  A
C719        C720   1.412       .  A
C719        N726   1.413       .  S
C720        C721   1.386       .  A
C720        H725   1.084       .  S
C721        C722   1.400       .  A
C722        N723   1.427       .  S
N723        O727   1.261       .  A
N723        O728   1.253       .  A
N726        O730   1.264       .  A
N726        O729   1.257       .  A
C731        C732   1.398       .  A
C731        C736   1.415       .  A
C731        H738   1.084       .  S
C732        C733   1.409       .  A
C733        C734   1.413       .  A
C733        N740   1.440       .  S
C734        C735   1.426       .  A
C734        H739   1.083       .  S
C735        C736   1.435       .  A
C736        N737   1.421       .  S
N737        O741   1.256       .  A
N737        O742   1.255       .  A
N740        O744   1.263       .  A
N740        O743   1.263       .  A
C745        C746   1.416       .  A
C745        C750   1.387       .  A
C745        H752   1.080       .  S
C746        C747   1.409       .  A
C747        C748   1.395       .  A
C747        N754   1.433       .  S
C748        C749   1.395       .  A
C748        H753   1.072       .  S
C749        C750   1.401       .  A
C750        N751   1.436       .  S
N751        O755   1.260       .  A
N751        O756   1.262       .  A
N754        O758   1.261       .  A
N754        O757   1.262       .  A
C759        C760   1.403       .  A
C759        C764   1.405   1_655  A
C759        H766   1.083       .  S
C760        C761   1.409       .  A
C761        C762   1.418   1_655  A
C761        N768   1.428       .  S
C762        C763   1.413       .  A
C762        H767   1.083       .  S
C763        C764   1.416       .  A
C764        N765   1.444       .  S
N765        O769   1.263   1_565  A
N765        O770   1.260       .  A
N768        O772   1.262       .  A
N768        O771   1.260       .  A
