geometry optimzed in LAMMPS
_audit_creation_date              2020-12-01 
_audit_creation_method            'lammps2cif' 
_symmetry_space_group_name_H-M    'P1' 
_symmetry_Int_Tables_number       1 
_symmetry_cell_setting            triclinic 
loop_ 
_symmetry_equiv_pos_as_xyz 
  x,y,z 
_cell_length_a                    36.19628168 
_cell_length_b                    37.974006406936766 
_cell_length_c                    30.03472996059731 
_cell_angle_alpha                 93.07031117846998 
_cell_angle_beta                  86.90588325064854 
_cell_angle_gamma                 123.1547103651773 
loop_ 
_atom_site_label 
_atom_site_type_symbol 
_atom_site_fract_x 
_atom_site_fract_y 
_atom_site_fract_z 
_atom_site_charge 
O1          O  0.08041092  0.30286183  0.33853955    -0.81800
O2          O  0.25676309  0.40854885  0.42740902    -0.66500
O3          O  0.17074448  0.34280966  0.33714842    -1.13100
C4          C  0.13812283  0.23051548  0.43388199     1.05000
O5          O  0.27815129  0.36476319  0.41666716    -0.79700
O6          O  0.24070198  0.28902550  0.37255825    -0.67300
Ni7        Ni  0.12956778  0.35778094  0.32422160     1.34900
C8          C  0.22200069  0.27590545  0.33512180     0.83800
O9          O  0.23516334  0.43120062  0.34901824    -0.80300
O10         O  0.17642756  0.41390258  0.30846079    -0.90600
C11         C  0.28057576  0.39543203  0.43870882     0.83400
O12         O  0.12136816  0.37775671  0.38164916    -0.68800
O13         O  0.17860872  0.25469625  0.44451347    -0.88000
C14         C  0.14135111  0.38809518  0.41823037     0.84200
C15         C  0.21623116  0.44005031  0.31994039     1.05800
H16         H  0.17271682  0.32315873  0.43475548     0.37600
O17         O  0.18941138  0.32383081  0.40823750    -1.10700
O18         O  0.18617039  0.27486628  0.32785167    -0.67400
Ni19       Ni  0.14642603  0.28844184  0.36477191     1.26300
O20         O  0.17588653  0.38766966  0.42226833    -0.67600
O21         O  0.12192757  0.23706886  0.40012744    -0.79900
C22         C  0.07340910  0.27122072  0.31508153     0.83600
O23         O  0.09926920  0.25817129  0.32000041    -0.67100
Ni24       Ni  0.22827642  0.30945041  0.42819855     1.27400
Ni25       Ni  0.21353528  0.37806612  0.38114424     1.26100
H26         H  0.18627172  0.34342092  0.30970061     0.38100
C27         C  0.24313183  0.25971915  0.30033619     0.79300
N28         N  0.28856631  0.28120237  0.29274540    -0.79000
C29         C  0.30724748  0.26448609  0.26444859     0.81700
N30         N  0.28054862  0.22568478  0.24595229    -0.79000
C31         C  0.23651812  0.20295528  0.25449139     0.81800
N32         N  0.21796226  0.21983678  0.28196639    -0.80700
C33         C  0.23935704  0.98188283  0.29661577     0.79300
N34         N  0.21556277  0.99862459  0.28681319    -0.79000
C35         C  0.23326626  0.03296759  0.26037992     0.81700
N36         N  0.27439587  0.05025172  0.24292924    -0.79000
C37         C  0.29887373  0.03499492  0.25252967     0.81800
N38         N  0.28179709  0.00117846  0.28001296    -0.80700
C39         C  0.48942024  0.26283050  0.23884471     0.79300
N40         N  0.51673982  0.27469026  0.27425776    -0.79000
C41         C  0.03731357  0.25381175  0.28110839     0.81700
N42         N  0.52323666  0.21718266  0.25717364    -0.79000
C43         C  0.49557874  0.20663013  0.22229232     0.81800
N44         N  0.48370360  0.23219878  0.21100474    -0.80700
C45         C  0.30733159  0.41134525  0.47967449     0.02200
C46         C  0.35376494  0.43331880  0.47601080    -0.14000
C47         C  0.37821005  0.43351773  0.51142998    -0.00300
C48         C  0.35385593  0.40740435  0.54681607    -0.12500
C49         C  0.31221981  0.40100983  0.55834354     0.02200
C50         C  0.28724896  0.39966861  0.52287916    -0.11900
H51         H  0.36986573  0.44959627  0.44565076     0.07800
H52         H  0.37093854  0.40178020  0.57084676     0.05300
H53         H  0.25326994  0.39017799  0.52878129     0.05100
C54         C  0.12360532  0.40267440  0.45635574     0.02200
C55         C  0.12158092  0.39229372  0.50176752    -0.14000
C56         C  0.09742912  0.40131412  0.53404355    -0.00300
C57         C  0.07627962  0.42103259  0.51981878    -0.12500
C58         C  0.08123844  0.43492700  0.47729335     0.02200
C59         C  0.10481269  0.42528593  0.44551577    -0.11900
H60         H  0.13556366  0.37487656  0.51103802     0.07800
H61         H  0.05225942  0.42315115  0.54017447     0.05300
H62         H  0.10723434  0.43413114  0.41125056     0.05100
O63         O  0.43297751  0.06659709  0.09643726    -0.81800
O64         O  0.43031673  0.02321982  0.27945872    -0.66500
O65         O  0.38888031  0.03050658  0.16964258    -1.13100
C66         C  0.45905576  0.16447130  0.21460607     1.05000
O67         O  0.43096250  0.07420829  0.32116537    -0.79700
O68         O  0.37002173  0.06864772  0.27491037    -0.67300
Ni69       Ni  0.40288672  0.01124469  0.11665194     1.34900
C70         C  0.34616527  0.06135523  0.24222876     0.83800
O71         O  0.38540591  0.46834988  0.21502959    -0.80300
O72         O  0.37770834  0.45703424  0.14029754    -0.90600
C73         C  0.43141585  0.04128669  0.31675389     0.83400
O74         O  0.46024165  0.02479048  0.12544498    -0.68800
O75         O  0.42922566  0.14745967  0.24454607    -0.88000
C76         C  0.98328143  0.03983484  0.15942038     0.84200
C77         C  0.38240165  0.44781930  0.17905894     1.05800
H78         H  0.47169608  0.10007885  0.22348373     0.37600
O79         O  0.44005032  0.08593643  0.22743863    -1.10700
O80         O  0.36187756  0.07914651  0.20418954    -0.67400
Ni81       Ni  0.41602254  0.08936088  0.17229171     1.26300
O82         O  0.46732725  0.03943664  0.19825073    -0.67600
O83         O  0.45028215  0.14866427  0.17585207    -0.79900
C84         C  0.41067710  0.07977200  0.08313591     0.83600
O85         O  0.39357524  0.09123501  0.11396538    -0.67100
Ni86       Ni  0.43005182  0.10981315  0.28061288     1.27400
Ni87       Ni  0.41133033  0.02689332  0.22326894     1.26100
H88         H  0.35712408  0.01595170  0.17241916     0.38100
O89         O  0.46285720  0.36960790  0.32434889    -0.81800
O90         O  0.40507950  0.28489343  0.12588938    -0.66500
O91         O  0.45471742  0.34857720  0.23750523    -1.13100
C92         C  0.39545921  0.41844315  0.18087849     1.05000
O93         O  0.45943106  0.34701149  0.11291172    -0.79700
O94         O  0.49375065  0.42336475  0.14581942    -0.67300
Ni95       Ni  0.44250723  0.31964881  0.29159479     1.34900
C96         C  0.00550411  0.44302513  0.18267524     0.83800
O97         O  0.45371819  0.28247090  0.19336557    -0.80300
O98         O  0.43018606  0.27025523  0.26211964    -0.90600
C99         C  0.42922481  0.31241053  0.09666476     0.83400
O100        O  0.38250606  0.30569903  0.28827217    -0.68800
O101        O  0.41210850  0.41315905  0.14428254    -0.88000
C102        C  0.35644700  0.28466175  0.25622628     0.84200
C103        C  0.45817889  0.27474094  0.23227831     1.05800
H104        H  0.37728965  0.33343474  0.17411795     0.37600
O105        O  0.40895447  0.34916753  0.17709497    -1.10700
O106        O  0.48083145  0.42931022  0.21724494    -0.67400
Ni107      Ni  0.42519909  0.37767008  0.23206428     1.26300
O108        O  0.37087921  0.27719035  0.21837005    -0.67600
O109        O  0.39598594  0.40493896  0.21906026    -0.79900
C110        C  0.46209063  0.40153724  0.31799084     0.83600
O111        O  0.43947964  0.40401000  0.28909479    -0.67100
Ni112      Ni  0.43637334  0.38068630  0.12722686     1.27400
Ni113      Ni  0.42820784  0.31362466  0.18481847     1.26100
H114        H  0.48623574  0.36709292  0.23248985     0.38100
O115        O  0.15111853  0.04224005  0.10631368    -0.81800
O116        O  0.06480626  0.07537862  0.26647146    -0.66500
O117        O  0.12734570  0.08221392  0.16122889    -1.13100
C118        C  0.21033217  0.05445135  0.25440527     1.05000
O119        O  0.12750105  0.11027867  0.29877454    -0.79700
O120        O  0.20898271  0.13540397  0.27893351    -0.67300
Ni121      Ni  0.09776797  0.04100307  0.11523254     1.34900
C122        C  0.21306211  0.15693213  0.24616882     0.83800
O123        O  0.05534208  0.08367456  0.18328789    -0.80300
O124        O  0.04286425  0.03892556  0.12516707    -0.90600
C125        C  0.08685088  0.08329408  0.30038769     0.83400
O126        O  0.07508809  0.99343507  0.15160361    -0.68800
O127        O  0.18696067  0.05438056  0.28770099    -0.88000
C128        C  0.04680603  0.48530119  0.18277901     0.84200
C129        C  0.03011729  0.05639715  0.15436695     1.05800
H130        H  0.11945164  0.03235625  0.23840825     0.37600
O131        O  0.13394344  0.06253282  0.23776228    -1.10700
O132        O  0.20020716  0.13995258  0.20738875    -0.67400
Ni133      Ni  0.17349967  0.08079367  0.18799365     1.26300
O134        O  0.04980919  0.01442958  0.20870717    -0.67600
O135        O  0.21595657  0.07363135  0.21774279    -0.79900
C136        C  0.18562796  0.07795986  0.09841052     0.83600
O137        O  0.20857647  0.09922698  0.13210861    -0.67100
Ni138      Ni  0.15762326  0.08315443  0.29487135     1.27400
Ni139      Ni  0.09405075  0.07528757  0.21300761     1.26100
H140        H  0.13888281  0.11012060  0.15078492     0.38100
O141        O  0.04733602  0.44743235  0.42242607    -0.81800
O142        O  0.44694834  0.99866228  0.35034950    -0.66500
O143        O  0.03822099  0.01225419  0.41570386    -1.13100
C144        C  0.42682897  0.46597841  0.51571892     1.05000
O145        O  0.43484294  0.03967298  0.39520716    -0.79700
O146        O  0.49782112  0.06966637  0.45429462    -0.67300
Ni147      Ni  0.07190038  0.49414763  0.38572161     1.34900
C148        C  0.02990886  0.07465497  0.47523543     0.83800
O149        O  0.02809003  0.02437283  0.33001560    -0.80300
O150        O  0.09464678  0.04189897  0.34957101    -0.90600
C151        C  0.43662878  0.02498846  0.35640236     0.83400
O152        O  0.03093454  0.45686252  0.34141657    -0.68800
O153        O  0.44085116  0.50461365  0.51122683    -0.88000
C154        C  0.48922568  0.43748309  0.34498604     0.84200
C155        C  0.06946612  0.04903886  0.32928719     1.05800
H156        H  0.43318309  0.45987158  0.42774214     0.37600
O157        O  0.45847012  0.48798912  0.43277661    -1.10700
O158        O  0.02844435  0.04291624  0.49216457    -0.67400
Ni159      Ni  0.50045676  0.48455266  0.46520947     1.26300
O160        O  0.47019005  0.45022411  0.36964071    -0.67600
O161        O  0.45540837  0.45584563  0.51228604    -0.79900
C162        C  0.05610591  0.45315308  0.46321072     0.83600
O163        O  0.04295939  0.47316294  0.48909920    -0.67100
Ni164      Ni  0.43838343  0.02226426  0.45380719     1.27400
Ni165      Ni  0.99317588  0.00668823  0.38220540     1.26100
H166        H  0.05909314  0.04165777  0.42239217     0.38100
C167        C  0.10986175  0.19520484  0.46574731     0.02200
C168        C  0.08397547  0.15197870  0.45188597    -0.14000
C169        C  0.06663519  0.11981206  0.48390716    -0.00300
C170        C  0.07618350  0.13192838  0.52810313    -0.12500
C171        C  0.09259918  0.17338454  0.54430515     0.02200
C172        C  0.11139827  0.20539910  0.51258039    -0.11900
H173        H  0.07838475  0.14346210  0.41677200     0.07800
H174        H  0.06404783  0.10654154  0.54997974     0.05300
H175        H  0.12638366  0.23785551  0.52392266     0.05100
O176        O  0.08325559  0.10626849  0.87349258    -0.81800
O177        O  0.47683345  0.44856005  0.00734683    -0.66500
O178        O  0.04730356  0.03727128  0.92248310    -1.13100
C179        C  0.42342371  0.43670067  0.84334402     1.05000
O180        O  0.49824566  0.42411074  0.95249292    -0.79700
O181        O  0.99708519  0.42204091  0.86459132    -0.67300
Ni182      Ni  0.06988821  0.09497917  0.93463408     1.34900
C183        C  0.02252904  0.45294444  0.84067022     0.83800
O184        O  0.05824015  0.02939172  0.01153490    -0.80300
O185        O  0.06300416  0.08668456  0.99576773    -0.90600
C186        C  0.47584851  0.41667011  0.98786956     0.81400
O187        O  0.01029463  0.08032668  0.93163536    -0.68800
O188        O  0.41836966  0.40896307  0.86934650    -0.88000
C189        C  0.97928984  0.05628903  0.95920628     0.84200
C190        C  0.08132574  0.06912816  0.00878119     1.05800
H191        H  0.44384430  0.46676277  0.93406529     0.37600
O192        O  0.47112858  0.46921412  0.92475944    -1.10700
O193        O  0.02947696  0.48885697  0.84775045    -0.67400
Ni194      Ni  0.99956477  0.00959793  0.88202542     1.26300
O195        O  0.48067920  0.02819473  0.98199156    -0.67600
O196        O  0.45145061  0.47656111  0.84539453    -0.79900
C197        C  0.06502475  0.08450041  0.83869741     0.83600
O198        O  0.02751880  0.05052556  0.83835077    -0.67100
Ni199      Ni  0.45729410  0.41481180  0.91140235     1.27400
Ni200      Ni  0.01260023  0.49813125  0.96870809     1.26100
H201        H  0.07108281  0.03387929  0.91269582     0.38100
O202        O  0.05174593  0.38235827  0.59752022    -0.81800
O203        O  0.04452334  0.45814903  0.76477745    -0.66500
O204        O  0.09202103  0.44390943  0.65549431    -1.13100
C205        C  0.09093141  0.34632544  0.72855062     1.05000
O206        O  0.06063995  0.42505888  0.81218406    -0.79700
O207        O  0.13382112  0.45897988  0.75971216    -0.67300
Ni208      Ni  0.06624812  0.43830192  0.60184727     1.34900
C209        C  0.16148436  0.46436753  0.72873745     0.83800
O210        O  0.07367551  0.99797147  0.68592828    -0.80300
O211        O  0.08094325  0.99392436  0.60974743    -0.90600
C212        C  0.04460290  0.44595839  0.80355037     0.83400
O213        O  0.00776079  0.42145535  0.61637422    -0.68800
O214        O  0.11685048  0.37981632  0.74944823    -0.88000
C215        C  0.48897306  0.41707730  0.65385729     0.84200
C216        C  0.08025864  0.01212472  0.64645111     1.05800
H217        H  0.03052550  0.37551828  0.72550626     0.37600
O218        O  0.06096675  0.39900021  0.72464343    -1.10700
O219        O  0.15091288  0.43785413  0.69493691    -0.67400
Ni220      Ni  0.09156004  0.39676284  0.66995406     1.26300
O221        O  0.00618345  0.41791701  0.69006520    -0.67600
O222        O  0.08783550  0.34760999  0.68723771    -0.79900
C223        C  0.08687837  0.38698493  0.58134834     0.83600
O224        O  0.11531904  0.39395286  0.61005151    -0.67100
Ni225      Ni  0.08930943  0.40394610  0.77847954     1.27400
Ni226      Ni  0.06671823  0.44959909  0.70831691     1.26100
H227        H  0.12205732  0.46791253  0.65283144     0.38100
O228        O  0.11283258  0.13887964  0.79298064    -0.81800
O229        O  0.10427095  0.20262673  0.62296578    -0.66500
O230        O  0.06182818  0.13759627  0.73079235    -1.13100
C231        C  0.08425276  0.05064641  0.64543410     1.05000
O232        O  0.04393538  0.14473893  0.60587628    -0.79700
O233        O  0.99873438  0.07400290  0.64740296    -0.67300
Ni234      Ni  0.07994674  0.16266724  0.78794809     1.34900
C235        C  0.49182546  0.04894202  0.67714351     0.83800
O236        O  0.07470143  0.21362263  0.71126204    -0.80300
O237        O  0.04796078  0.18703409  0.78033883    -0.90600
C238        C  0.07916831  0.17704300  0.59214760     0.83400
O239        O  0.13348233  0.21182479  0.77100464    -0.68800
O240        O  0.06051198  0.05470446  0.61843301    -0.88000
C241        C  0.15860004  0.21266544  0.73971009     0.84200
C242        C  0.05396863  0.21064059  0.74875514     1.05800
H243        H  0.12128855  0.14316901  0.64323437     0.37600
O244        O  0.09159816  0.13146118  0.65525039    -1.10700
O245        O  0.02291200  0.05552831  0.70079984    -0.67400
Ni246      Ni  0.08269527  0.10393867  0.70794761     1.26300
O247        O  0.14468388  0.20022540  0.70024885    -0.67600
O248        O  0.10371911  0.07447991  0.67887086    -0.79900
C249        C  0.08771061  0.10018689  0.79684845     0.83600
O250        O  0.07461235  0.07711176  0.76229131    -0.67100
Ni251      Ni  0.05115379  0.09948980  0.61147238     1.27400
Ni252      Ni  0.08425433  0.17325218  0.68074006     1.26100
H253        H  0.02996418  0.12159920  0.73075954     0.38100
O254        O  0.34740831  0.45365851  0.61260685    -0.81800
O255        O  0.42098619  0.43566440  0.76956699    -0.66500
O256        O  0.36136044  0.41191913  0.66610573    -1.13100
C257        C  0.28412276  0.46027785  0.75608885     1.05000
O258        O  0.35851849  0.40062196  0.80750513    -0.79700
O259        O  0.28176863  0.37353406  0.78601179    -0.67300
Ni260      Ni  0.39426138  0.44532532  0.61788170     1.34900
C261        C  0.28216397  0.35063492  0.75383554     0.83800
O262        O  0.42565458  0.40368708  0.69228962    -0.80300
O263        O  0.44166537  0.43566702  0.62624010    -0.90600
C264        C  0.39962090  0.42211724  0.80526935     0.83400
O265        O  0.42432589  0.49885622  0.64651925    -0.68800
O266        O  0.30289809  0.45909084  0.79012671    -0.88000
C267        C  0.44966199  0.00818745  0.67804087     0.84200
C268        C  0.44856157  0.41689833  0.65640482     1.05800
H269        H  0.37348859  0.47495303  0.73887963     0.37600
O270        O  0.35674338  0.44462887  0.74012146    -1.10700
O271        O  0.29015939  0.36440843  0.71408181    -0.67400
Ni272      Ni  0.31825814  0.42182707  0.69155728     1.26300
O273        O  0.44226525  0.48109822  0.70590315    -0.67600
O274        O  0.27827287  0.43713472  0.72023487    -0.79900
C275        C  0.31147372  0.42001526  0.60293243     0.83600
O276        O  0.28541399  0.40003258  0.63590657    -0.67100
Ni277      Ni  0.33078961  0.42926958  0.79866549     1.27400
Ni278      Ni  0.39246050  0.42442117  0.71755661     1.26100
H279        H  0.34829420  0.38265855  0.65734457     0.38100
C280        C  0.19960686  0.10564315  0.97543982     0.02200
C281        C  0.15710613  0.09823323  0.97115006    -0.14000
C282        C  0.13000555  0.09187752  0.00987316    -0.00300
C283        C  0.14715479  0.09754962  0.05157696    -0.12500
C284        C  0.18547440  0.09803324  0.05711030     0.02200
C285        C  0.21213598  0.10298715  0.01895930    -0.11900
H286        H  0.14423780  0.09449091  0.93832102     0.07800
H287        H  0.12618024  0.09444837  0.07978544     0.05300
H288        H  0.24169665  0.10298244  0.02297828     0.05100
C289        C  0.41333554  0.29645286  0.96786734     0.02200
C290        C  0.43257692  0.33991133  0.96049670    -0.14000
C291        C  0.44357148  0.37024668  0.99575460    -0.00300
C292        C  0.43122379  0.35582782  0.03822514    -0.12500
C293        C  0.41857190  0.31459849  0.04920430     0.02200
C294        C  0.40872288  0.28433166  0.01342885    -0.11900
H295        H  0.44079726  0.35054498  0.92656013     0.07800
H296        H  0.43911685  0.38004696  0.06298863     0.05300
H297        H  0.39898986  0.25271107  0.02073641     0.05100
C298        C  0.41276690  0.11005151  0.96097736     0.02200
C299        C  0.40158727  0.10579199  0.00768200    -0.14000
C300        C  0.40854710  0.07959388  0.03320598    -0.00300
C301        C  0.42328885  0.05563745  0.01072560    -0.12500
C302        C  0.44430720  0.06639320  0.96930827     0.02200
C303        C  0.43699693  0.09237007  0.94306713    -0.11900
H304        H  0.38726111  0.12208692  0.02356790     0.07800
H305        H  0.42547043  0.03285022  0.02866323     0.05300
H306        H  0.44962418  0.09846272  0.90894216     0.05100
O307        O  0.32493421  0.25577448  0.83570098    -0.81800
O308        O  0.40927926  0.16595537  0.92548761    -0.66500
O309        O  0.35460483  0.19874731  0.84034247    -1.13100
C310        C  0.23012353  0.11049501  0.93653823     1.05000
O311        O  0.35799504  0.09977308  0.91107455    -0.79700
O312        O  0.28343564  0.06960462  0.86634434    -0.67300
Ni313      Ni  0.38027150  0.25790532  0.82964495     1.34900
C314        C  0.27391470  0.07847844  0.83029840     0.83800
O315        O  0.44189402  0.21834694  0.85202498    -0.80300
O316        O  0.43833913  0.26747196  0.81734575    -0.90600
C317        C  0.39326066  0.12662886  0.93076412     0.83400
O318        O  0.39391257  0.27896720  0.89083183    -0.68800
O319        O  0.24843275  0.09014768  0.94069041    -0.88000
C320        C  0.40105006  0.26685303  0.92649774     0.84200
C321        C  0.45820041  0.24934167  0.82551917     1.05800
H322        H  0.32614638  0.16701259  0.93663752     0.37600
O323        O  0.32601758  0.15325497  0.90858612    -1.10700
O324        O  0.27667909  0.11414611  0.82642890    -0.67400
Ni325      Ni  0.29562286  0.16619187  0.86752832     1.26300
O326        O  0.39884921  0.23194938  0.92717068    -0.67600
O327        O  0.24041162  0.13653597  0.90469198    -0.79900
C328        C  0.28749319  0.22872359  0.81913551     0.83600
O329        O  0.27067981  0.18871923  0.82581154    -0.67100
Ni330      Ni  0.30337304  0.09653298  0.92358953     1.27400
Ni331      Ni  0.38443424  0.18567419  0.88283665     1.26100
H332        H  0.35439863  0.18534915  0.81199666     0.38100
C333        C  0.25989222  0.54378160  0.79300950     0.79300
N334        N  0.28040201  0.52172450  0.78910453    -0.79000
C335        C  0.26624581  0.48789939  0.75937224     0.81700
N336        N  0.23139932  0.47583053  0.73455941    -0.79000
C337        C  0.20802355  0.49371167  0.74006709     0.81800
N338        N  0.22178310  0.52753253  0.76980288    -0.80700
C339        C  0.04129456  0.23955016  0.75854859     0.79300
N340        N  0.00848540  0.23184423  0.78867417    -0.79000
C341        C  0.50002932  0.26206478  0.79927015     0.81700
N342        N  0.02663443  0.30082510  0.78021510    -0.79000
C343        C  0.06095690  0.30783194  0.75157612     0.81800
N344        N  0.06684814  0.27698086  0.74050484    -0.80700
C345        C  0.26467134  0.24652193  0.79270416     0.79300
N346        N  0.22378819  0.22020856  0.77464286    -0.79000
C347        C  0.20558035  0.23584891  0.74897741     0.81700
N348        N  0.22676480  0.27725758  0.74255939    -0.79000
C349        C  0.26540917  0.30488822  0.76105102     0.81800
N350        N  0.28488718  0.28971327  0.78637990    -0.80700
O351        O  0.08041131  0.80286211  0.33853841    -0.81800
O352        O  0.25676330  0.90854865  0.42741235    -0.66500
O353        O  0.17074557  0.84281079  0.33715063    -1.13100
C354        C  0.13812260  0.73051587  0.43388322     1.05000
O355        O  0.27815135  0.86476287  0.41667039    -0.79700
O356        O  0.24070213  0.78902527  0.37256134    -0.67300
Ni357      Ni  0.12956910  0.85778229  0.32422387     1.34900
C358        C  0.22200170  0.77590615  0.33512437     0.83800
O359        O  0.23516563  0.93120174  0.34902159    -0.80300
O360        O  0.17642932  0.91390487  0.30846593    -0.90600
C361        C  0.28057586  0.89543172  0.43871202     0.83400
O362        O  0.12136760  0.87775565  0.38165225    -0.68800
O363        O  0.17860814  0.75469645  0.44451564    -0.88000
C364        C  0.14135118  0.88809528  0.41823318     0.84200
C365        C  0.21623329  0.94005216  0.31994474     1.05800
H366        H  0.17271634  0.82315882  0.43475753     0.37600
O367        O  0.18941131  0.82383106  0.40823983    -1.10700
O368        O  0.18617191  0.77486769  0.32785362    -0.67400
Ni369      Ni  0.14642672  0.78844254  0.36477324     1.26300
O370        O  0.17588742  0.88767101  0.42227087    -0.67600
O371        O  0.12192797  0.73706929  0.40012815    -0.79900
C372        C  0.07341004  0.77122085  0.31508075     0.83600
O373        O  0.09927056  0.75817199  0.32000046    -0.67100
Ni374      Ni  0.22827606  0.80945030  0.42820131     1.27400
Ni375      Ni  0.21353607  0.87806673  0.38114713     1.26100
H376        H  0.18627308  0.84342239  0.30970290     0.38100
C377        C  0.24313291  0.75971986  0.30033874     0.79300
N378        N  0.28856743  0.78120239  0.29274845    -0.79000
C379        C  0.30724820  0.76448604  0.26445103     0.81700
N380        N  0.28054883  0.72568528  0.24595375    -0.79000
C381        C  0.23651820  0.70295645  0.25449223     0.81800
N382        N  0.21796282  0.71983807  0.28196778    -0.80700
C383        C  0.23935500  0.48188087  0.29661153     0.79300
N384        N  0.21556204  0.49862472  0.28681176    -0.79000
C385        C  0.23326627  0.53296855  0.26037961     0.81700
N386        N  0.27439507  0.55025106  0.24292689    -0.79000
C387        C  0.29887141  0.53499171  0.25252420     0.81800
N388        N  0.28179412  0.50117468  0.28000660    -0.80700
C389        C  0.48942071  0.76283044  0.23884459     0.79300
N390        N  0.51674223  0.77469090  0.27425587    -0.79000
C391        C  0.03731342  0.75381067  0.28110804     0.81700
N392        N  0.52323331  0.71717948  0.25717466    -0.79000
C393        C  0.49557423  0.70662687  0.22229393     0.81800
N394        N  0.48369939  0.73219580  0.21100687    -0.80700
C395        C  0.30733120  0.91134464  0.47967777     0.02200
C396        C  0.35376457  0.93331834  0.47601467    -0.14000
C397        C  0.37820923  0.93351701  0.51143411    -0.00300
C398        C  0.35385449  0.90740355  0.54682002    -0.12500
C399        C  0.31221828  0.90100916  0.55834677     0.02200
C400        C  0.28724791  0.89966771  0.52288200    -0.11900
H401        H  0.36986566  0.94959601  0.44565482     0.07800
H402        H  0.37093625  0.90177825  0.57085060     0.05300
H403        H  0.25326877  0.89017691  0.52878355     0.05100
C404        C  0.12360489  0.90267416  0.45635851     0.02200
C405        C  0.12157867  0.89229183  0.50176996    -0.14000
C406        C  0.09742443  0.90130985  0.53404525    -0.00300
C407        C  0.07627415  0.92102738  0.51982006    -0.12500
C408        C  0.08123660  0.93492547  0.47729584     0.02200
C409        C  0.10481298  0.92528644  0.44551873    -0.11900
H410        H  0.13556166  0.87487493  0.51104056     0.07800
H411        H  0.05225106  0.92314267  0.54017420     0.05300
H412        H  0.10723652  0.93413346  0.41125395     0.05100
O413        O  0.43297745  0.56659752  0.09643061    -0.81800
O414        O  0.43031185  0.52321447  0.27945299    -0.66500
O415        O  0.38888030  0.53050472  0.16963469    -1.13100
C416        C  0.45905222  0.66446787  0.21460371     1.05000
O417        O  0.43096300  0.57420589  0.32115901    -0.79700
O418        O  0.37001953  0.56864105  0.27490358    -0.67300
Ni419      Ni  0.40288945  0.51124493  0.11664403     1.34900
C420        C  0.34616302  0.56135040  0.24222251     0.83800
O421        O  0.38541060  0.96835335  0.21503697    -0.80300
O422        O  0.37770117  0.95703387  0.14030628    -0.90600
C423        C  0.43141425  0.54128328  0.31674788     0.83400
O424        O  0.46024536  0.52479499  0.12543787    -0.68800
O425        O  0.42922019  0.64745380  0.24454125    -0.88000
C426        C  0.98328198  0.53983371  0.15941652     0.84200
C427        C  0.38239853  0.94781974  0.17906626     1.05800
H428        H  0.47169497  0.60007523  0.22347782     0.37600
O429        O  0.44004925  0.58593330  0.22743247    -1.10700
O430        O  0.36187560  0.57914258  0.20418370    -0.67400
Ni431      Ni  0.41602170  0.58935903  0.17228586     1.26300
O432        O  0.46732498  0.53943101  0.19824582    -0.67600
O433        O  0.45028101  0.64866288  0.17584865    -0.79900
C434        C  0.41067574  0.57977115  0.08312991     0.83600
O435        O  0.39357421  0.59123409  0.11395985    -0.67100
Ni436      Ni  0.43004909  0.60980873  0.28060701     1.27400
Ni437      Ni  0.41132798  0.52688993  0.22326207     1.26100
H438        H  0.35712396  0.51594946  0.17240977     0.38100
O439        O  0.46285652  0.86960783  0.32435307    -0.81800
O440        O  0.40508357  0.78489665  0.12589015    -0.66500
O441        O  0.45471764  0.84857786  0.23750841    -1.13100
C442        C  0.39545323  0.91844114  0.18088265     1.05000
O443        O  0.45943290  0.84701683  0.11291999    -0.79700
O444        O  0.49374043  0.92337334  0.14581434    -0.67300
Ni445      Ni  0.44250799  0.81964926  0.29159750     1.34900
C446        C  0.00550038  0.94302803  0.18267245     0.83800
O447        O  0.45372113  0.78247423  0.19336702    -0.80300
O448        O  0.43018823  0.77025653  0.26212094    -0.90600
C449        C  0.42923136  0.81241609  0.09666837     0.83400
O450        O  0.38250657  0.80569840  0.28827483    -0.68800
O451        O  0.41209194  0.91314994  0.14428282    -0.88000
C452        C  0.35644774  0.78466123  0.25622879     0.84200
C453        C  0.45818126  0.77474304  0.23227937     1.05800
H454        H  0.37728783  0.83343410  0.17412570     0.37600
O455        O  0.40895304  0.84916788  0.17709970    -1.10700
O456        O  0.48083502  0.92930896  0.21724632    -0.67400
Ni457      Ni  0.42520075  0.87767191  0.23206769     1.26300
O458        O  0.37088027  0.77719010  0.21837247    -0.67600
O459        O  0.39598951  0.90494311  0.21906480    -0.79900
C460        C  0.46209193  0.90153829  0.31799449     0.83600
O461        O  0.43948377  0.90401308  0.28909690    -0.67100
Ni462      Ni  0.43636480  0.88068393  0.12722901     1.27400
Ni463      Ni  0.42820890  0.81362635  0.18482111     1.26100
H464        H  0.48623603  0.86709319  0.23249319     0.38100
O465        O  0.15112060  0.54223868  0.10631614    -0.81800
O466        O  0.06480539  0.57537871  0.26647000    -0.66500
O467        O  0.12734582  0.58221291  0.16122872    -1.13100
C468        C  0.21033309  0.55445348  0.25440633     1.05000
O469        O  0.12749964  0.61027879  0.29877399    -0.79700
O470        O  0.20898183  0.63540518  0.27893432    -0.67300
Ni471      Ni  0.09776904  0.54100012  0.11523391     1.34900
C472        C  0.21306157  0.65693330  0.24616947     0.83800
O473        O  0.05534148  0.58367240  0.18328616    -0.80300
O474        O  0.04286455  0.53892153  0.12516739    -0.90600
C475        C  0.08684961  0.58329358  0.30038633     0.83400
O476        O  0.07509146  0.49343384  0.15160715    -0.68800
O477        O  0.18696127  0.55438228  0.28770203    -0.88000
C478        C  0.04680375  0.98530281  0.18277662     0.84200
C479        C  0.03011739  0.55639446  0.15436535     1.05800
H480        H  0.11945259  0.53235696  0.23840883     0.37600
O481        O  0.13394374  0.56253344  0.23776269    -1.10700
O482        O  0.20020668  0.63995369  0.20738932    -0.67400
Ni483      Ni  0.17350042  0.58079472  0.18799443     1.26300
O484        O  0.04980938  0.51442823  0.20870760    -0.67600
O485        O  0.21595800  0.57363419  0.21774431    -0.79900
C486        C  0.18562909  0.57795874  0.09841166     0.83600
O487        O  0.20857722  0.59922783  0.13210927    -0.67100
Ni488      Ni  0.15762281  0.58315538  0.29487185     1.27400
Ni489      Ni  0.09405035  0.57528674  0.21300691     1.26100
H490        H  0.13888219  0.61011914  0.15078380     0.38100
O491        O  0.04733619  0.94743291  0.42242845    -0.81800
O492        O  0.44694794  0.49866015  0.35034459    -0.66500
O493        O  0.03822130  0.51225375  0.41570041    -1.13100
C494        C  0.42682824  0.96597744  0.51572321     1.05000
O495        O  0.43484382  0.53967228  0.39520110    -0.79700
O496        O  0.49782198  0.56966648  0.45428897    -0.67300
Ni497      Ni  0.07190074  0.99414889  0.38572499     1.34900
C498        C  0.02991016  0.57465544  0.47523239     0.83800
O499        O  0.02808952  0.52437040  0.33001173    -0.80300
O500        O  0.09464637  0.54189740  0.34956724    -0.90600
C501        C  0.43662841  0.52498634  0.35639669     0.83400
O502        O  0.03093564  0.95686418  0.34141959    -0.68800
O503        O  0.44085061  0.00461277  0.51123173    -0.88000
C504        C  0.48922646  0.93748385  0.34499013     0.84200
C505        C  0.06946542  0.54903724  0.32928397     1.05800
H506        H  0.43318295  0.95987180  0.42774577     0.37600
O507        O  0.45846983  0.98798931  0.43278082    -1.10700
O508        O  0.02844545  0.54291661  0.49216141    -0.67400
Ni509      Ni  0.50045623  0.98455226  0.46521333     1.26300
O510        O  0.47019037  0.95022520  0.36964375    -0.67600
O511        O  0.45540754  0.95584456  0.51228962    -0.79900
C512        C  0.05610509  0.95315259  0.46321328     0.83600
O513        O  0.04295848  0.97316226  0.48910199    -0.67100
Ni514      Ni  0.43838418  0.52226453  0.45380180     1.27400
Ni515      Ni  0.99317594  0.50668728  0.38220178     1.26100
H516        H  0.05909350  0.54165739  0.42238838     0.38100
C517        C  0.10986114  0.69520522  0.46574791     0.02200
C518        C  0.08397710  0.65197938  0.45188568    -0.14000
C519        C  0.06663518  0.61981244  0.48390633    -0.00300
C520        C  0.07617900  0.63192798  0.52810308    -0.12500
C521        C  0.09259597  0.67338442  0.54430558     0.02200
C522        C  0.11139608  0.70539917  0.51258102    -0.11900
H523        H  0.07838902  0.64346325  0.41677137     0.07800
H524        H  0.06403871  0.60654001  0.54997895     0.05300
H525        H  0.12638120  0.73785551  0.52392342     0.05100
O526        O  0.08325751  0.60626225  0.87349607    -0.81800
O527        O  0.47684323  0.94856519  0.00734205    -0.66500
O528        O  0.04730120  0.53726465  0.92248551    -1.13100
C529        C  0.42341752  0.93670580  0.84334844     1.05000
O530        O  0.49824662  0.92411458  0.95248004    -0.79700
O531        O  0.99705596  0.92203167  0.86457726    -0.67300
Ni532      Ni  0.06988811  0.59497334  0.93463673     1.34900
C533        C  0.02251570  0.95293847  0.84066655     0.83800
O534        O  0.05823417  0.52938562  0.01154013    -0.80300
O535        O  0.06300146  0.58667876  0.99576974    -0.90600
C536        C  0.47585711  0.91667549  0.98786196     0.81400
O537        O  0.01029554  0.58032403  0.93163592    -0.68800
O538        O  0.41834959  0.90897019  0.86936264    -0.88000
C539        C  0.97928832  0.55628565  0.95920451     0.84200
C540        C  0.08132207  0.56912171  0.00878352     1.05800
H541        H  0.44384911  0.96677650  0.93406477     0.37600
O542        O  0.47113077  0.96922260  0.92475889    -1.10700
O543        O  0.02948340  0.98885738  0.84775892    -0.67400
Ni544      Ni  0.99956106  0.50959392  0.88202892     1.26300
O545        O  0.48067399  0.52818900  0.98198909    -0.67600
O546        O  0.45145769  0.97656408  0.84538846    -0.79900
C547        C  0.06502096  0.58449716  0.83870150     0.83600
O548        O  0.02751160  0.55052584  0.83835709    -0.67100
Ni549      Ni  0.45728384  0.91481628  0.91140390     1.27400
Ni550      Ni  0.01260462  0.99813743  0.96870495     1.26100
H551        H  0.07107883  0.53387063  0.91269708     0.38100
O552        O  0.05173952  0.88235137  0.59752089    -0.81800
O553        O  0.04450942  0.95814015  0.76477469    -0.66500
O554        O  0.09201231  0.94390374  0.65549435    -1.13100
C555        C  0.09093105  0.84632585  0.72855371     1.05000
O556        O  0.06062792  0.92505315  0.81218371    -0.79700
O557        O  0.13381244  0.95897844  0.75971366    -0.67300
Ni558      Ni  0.06623955  0.93829440  0.60184665     1.34900
C559        C  0.16147690  0.96436657  0.72873993     0.83800
O560        O  0.07369024  0.49798046  0.68593078    -0.80300
O561        O  0.08095296  0.49393211  0.60974941    -0.90600
C562        C  0.04458895  0.94595055  0.80354805     0.83400
O563        O  0.00775183  0.92144769  0.61637290    -0.68800
O564        O  0.11684760  0.87981742  0.74945157    -0.88000
C565        C  0.48896438  0.91706915  0.65385702     0.84200
C566        C  0.08027043  0.51213288  0.64645356     1.05800
H567        H  0.03051934  0.87551186  0.72550659     0.37600
O568        O  0.06095989  0.89899523  0.72464398    -1.10700
O569        O  0.15090668  0.93785366  0.69493900    -0.67400
Ni570      Ni  0.09155494  0.89675944  0.66995553     1.26300
O571        O  0.00617318  0.91790472  0.69006307    -0.67600
O572        O  0.08783535  0.84760947  0.68724059    -0.79900
C573        C  0.08687319  0.88697997  0.58134973     0.83600
O574        O  0.11531442  0.89394996  0.61005331    -0.67100
Ni575      Ni  0.08930220  0.90394381  0.77848113     1.27400
Ni576      Ni  0.06670720  0.94959183  0.70831578     1.26100
H577        H  0.12204799  0.96790797  0.65283193     0.38100
O578        O  0.11282537  0.63887760  0.79298491    -0.81800
O579        O  0.10426889  0.70262734  0.62296682    -0.66500
O580        O  0.06182368  0.63759554  0.73079323    -1.13100
C581        C  0.08426078  0.55065284  0.64543717     1.05000
O582        O  0.04393488  0.64473839  0.60587801    -0.79700
O583        O  0.99873606  0.57400114  0.64739878    -0.67300
Ni584      Ni  0.07993961  0.66266509  0.78794983     1.34900
C585        C  0.49182661  0.54894098  0.67714015     0.83800
O586        O  0.07469611  0.71362143  0.71126233    -0.80300
O587        O  0.04795422  0.68703220  0.78033871    -0.90600
C588        C  0.07916641  0.67704307  0.59214873     0.83400
O589        O  0.13347651  0.71182271  0.77100910    -0.68800
O590        O  0.06052073  0.55470980  0.61843393    -0.88000
C591        C  0.15859507  0.71266469  0.73971467     0.84200
C592        C  0.05396308  0.71063925  0.74875521     1.05800
H593        H  0.12129023  0.64317264  0.64323926     0.37600
O594        O  0.09159904  0.63146362  0.65525344    -1.10700
O595        O  0.02291263  0.55552886  0.70079871    -0.67400
Ni596      Ni  0.08269379  0.60394022  0.70795057     1.26300
O597        O  0.14468022  0.70022682  0.70025272    -0.67600
O598        O  0.10372240  0.57448494  0.67887617    -0.79900
C599        C  0.08770410  0.60018470  0.79685167     0.83600
O600        O  0.07460605  0.57711069  0.76229388    -0.67100
Ni601      Ni  0.05115830  0.59949234  0.61147313     1.27400
Ni602      Ni  0.08425148  0.67325245  0.68074142     1.26100
H603        H  0.02995970  0.62159760  0.73075895     0.38100
O604        O  0.34740564  0.95365844  0.61260987    -0.81800
O605        O  0.42098139  0.93566483  0.76957047    -0.66500
O606        O  0.36135683  0.91191908  0.66610872    -1.13100
C607        C  0.28411634  0.96027652  0.75608981     1.05000
O608        O  0.35851318  0.90062293  0.80750759    -0.79700
O609        O  0.28176339  0.87353316  0.78601374    -0.67300
Ni610      Ni  0.39425779  0.94532403  0.61788400     1.34900
C611        C  0.28215969  0.85063427  0.75383775     0.83800
O612        O  0.42565056  0.90368693  0.69229323    -0.80300
O613        O  0.44165973  0.93566308  0.62624137    -0.90600
C614        C  0.39961553  0.92212022  0.80527307     0.83400
O615        O  0.42432639  0.99885632  0.64651909    -0.68800
O616        O  0.30289096  0.95908929  0.79012807    -0.88000
C617        C  0.44966338  0.50818714  0.67803900     0.84200
C618        C  0.44855538  0.91689451  0.65640661     1.05800
H619        H  0.37348369  0.97495308  0.73888198     0.37600
O620        O  0.35673858  0.94462893  0.74012388    -1.10700
O621        O  0.29015528  0.86440788  0.71408399    -0.67400
Ni622      Ni  0.31825390  0.92182675  0.69155935     1.26300
O623        O  0.44226178  0.98109869  0.70590636    -0.67600
O624        O  0.27826775  0.93713411  0.72023557    -0.79900
C625        C  0.31147126  0.92001507  0.60293490     0.83600
O626        O  0.28541070  0.90003235  0.63590847    -0.67100
Ni627      Ni  0.33078339  0.92926919  0.79866753     1.27400
Ni628      Ni  0.39245643  0.92442141  0.71755966     1.26100
H629        H  0.34829067  0.88265841  0.65734807     0.38100
C630        C  0.19960488  0.60563727  0.97543920     0.02200
C631        C  0.15710270  0.59822469  0.97114963    -0.14000
C632        C  0.13000233  0.59186929  0.00987322    -0.00300
C633        C  0.14715301  0.59754394  0.05157667    -0.12500
C634        C  0.18547374  0.59802965  0.05711017     0.02200
C635        C  0.21213503  0.60298320  0.01895900    -0.11900
H636        H  0.14423380  0.59448129  0.93832070     0.07800
H637        H  0.12617923  0.59444394  0.07978534     0.05300
H638        H  0.24169675  0.60298040  0.02297832     0.05100
C639        C  0.41333934  0.79645638  0.96786833     0.02200
C640        C  0.43258201  0.83991481  0.96049570    -0.14000
C641        C  0.44358428  0.87025284  0.99575217    -0.00300
C642        C  0.43124689  0.85583845  0.03822473    -0.12500
C643        C  0.41858615  0.81460674  0.04920515     0.02200
C644        C  0.40872868  0.78433686  0.01343059    -0.11900
H645        H  0.44079721  0.85054650  0.92655822     0.07800
H646        H  0.43915181  0.88006160  0.06298738     0.05300
H647        H  0.39899049  0.75271498  0.02073926     0.05100
C648        C  0.41276827  0.61005170  0.96097216     0.02200
C649        C  0.40158749  0.60579188  0.00767636    -0.14000
C650        C  0.40854430  0.57959177  0.03320017    -0.00300
C651        C  0.42328416  0.55563367  0.01071993    -0.12500
C652        C  0.44430522  0.56639039  0.96930379     0.02200
C653        C  0.43699757  0.59236913  0.94306249    -0.11900
H654        H  0.38726274  0.62208815  0.02356210     0.07800
H655        H  0.42546336  0.53284513  0.02865777     0.05300
H656        H  0.44962630  0.59846241  0.90893803     0.05100
O657        O  0.32493139  0.75577406  0.83570324    -0.81800
O658        O  0.40928030  0.66595708  0.92548653    -0.66500
O659        O  0.35460436  0.69874886  0.84034344    -1.13100
C660        C  0.23012312  0.61049109  0.93653782     1.05000
O661        O  0.35799851  0.59977556  0.91106800    -0.79700
O662        O  0.28343697  0.56960466  0.86634294    -0.67300
Ni663      Ni  0.38026969  0.75790657  0.82964658     1.34900
C664        C  0.27391807  0.57847925  0.83029633     0.83800
O665        O  0.44189363  0.71834980  0.85202608    -0.80300
O666        O  0.43833766  0.76747403  0.81734642    -0.90600
C667        C  0.39326331  0.62663040  0.93075919     0.83400
O668        O  0.39391176  0.77896862  0.89083361    -0.68800
O669        O  0.24843570  0.59014696  0.94069160    -0.88000
C670        C  0.40105026  0.76685483  0.92649930     0.84200
C671        C  0.45819931  0.74934409  0.82552007     1.05800
H672        H  0.32614585  0.66701197  0.93663729     0.37600
O673        O  0.32601781  0.65325505  0.90858563    -1.10700
O674        O  0.27668218  0.61414683  0.82642681    -0.67400
Ni675      Ni  0.29562203  0.66619085  0.86752810     1.26300
O676        O  0.39884884  0.73195080  0.92717201    -0.67600
O677        O  0.24040965  0.63653117  0.90469076    -0.79900
C678        C  0.28749073  0.72872291  0.81913699     0.83600
O679        O  0.27067822  0.68871838  0.82581193    -0.67100
Ni680      Ni  0.30337598  0.59653337  0.92358747     1.27400
Ni681      Ni  0.38443440  0.68567606  0.88283699     1.26100
H682        H  0.35439910  0.68535150  0.81199737     0.38100
C683        C  0.25988651  0.04378008  0.79301203     0.79300
N684        N  0.28039617  0.02172300  0.78910564    -0.79000
C685        C  0.26623908  0.98789777  0.75937352     0.81700
N686        N  0.23139171  0.97582870  0.73456200    -0.79000
C687        C  0.20801606  0.99370998  0.74007086     0.81800
N688        N  0.22177642  0.02753091  0.76980686    -0.80700
C689        C  0.04129041  0.73954968  0.75854898     0.79300
N690        N  0.00848144  0.73184439  0.78867436    -0.79000
C691        C  0.50002751  0.76206616  0.79927106     0.81700
N692        N  0.02663383  0.80082662  0.78021753    -0.79000
C693        C  0.06095626  0.80783275  0.75157908     0.81800
N694        N  0.06684580  0.77698079  0.74050667    -0.80700
C695        C  0.26466811  0.74652124  0.79270631     0.79300
N696        N  0.22378406  0.72020790  0.77464666    -0.79000
C697        C  0.20557534  0.73584833  0.74898252     0.81700
N698        N  0.22675981  0.77725686  0.74256390    -0.79000
C699        C  0.26540516  0.80488753  0.76105362     0.81800
N700        N  0.28488400  0.78971260  0.78638144    -0.80700
O701        O  0.58040486  0.30286760  0.33853161    -0.81800
O702        O  0.75676453  0.40855598  0.42740752    -0.66500
O703        O  0.67074008  0.34281730  0.33715102    -1.13100
C704        C  0.63811435  0.23052457  0.43389129     1.05000
O705        O  0.77814592  0.36476548  0.41666513    -0.79700
O706        O  0.74069143  0.28902461  0.37256920    -0.67300
Ni707      Ni  0.62956416  0.35779022  0.32422564     1.34900
C708        C  0.72199490  0.27591018  0.33513017     0.83800
O709        O  0.73516472  0.43120806  0.34901980    -0.80300
O710        O  0.67642411  0.41391609  0.30847479    -0.90600
C711        C  0.78057630  0.39543749  0.43870492     0.83400
O712        O  0.62136035  0.37775527  0.38165812    -0.68800
O713        O  0.67859886  0.25470646  0.44452652    -0.88000
C714        C  0.64134967  0.38810145  0.41823612     0.84200
C715        C  0.71622973  0.44006165  0.31994984     1.05800
H716        H  0.67271127  0.32316819  0.43475799     0.37600
O717        O  0.68940609  0.32383865  0.40824094    -1.10700
O718        O  0.68616746  0.27487511  0.32785686    -0.67400
Ni719      Ni  0.64642110  0.28844927  0.36477505     1.26300
O720        O  0.67589008  0.38768364  0.42227017    -0.67600
O721        O  0.62192200  0.23707631  0.40013248    -0.79900
C722        C  0.57340643  0.27122654  0.31507515     0.83600
O723        O  0.59926612  0.25817761  0.32000042    -0.67100
Ni724      Ni  0.72826887  0.30945675  0.42820545     1.27400
Ni725      Ni  0.71353364  0.37807367  0.38114561     1.26100
H726        H  0.68626608  0.34342772  0.30970258     0.38100
C727        C  0.74312735  0.25972485  0.30034511     0.79300
N728        N  0.78856247  0.28120515  0.29275817    -0.79000
C729        C  0.80724273  0.26448826  0.26446030     0.81700
N730        N  0.78054191  0.22568939  0.24595973    -0.79000
C731        C  0.73651089  0.20296278  0.25449549     0.81800
N732        N  0.71795625  0.21984483  0.28197101    -0.80700
C733        C  0.73935594  0.98189615  0.29662837     0.79300
N734        N  0.71556215  0.99863914  0.28682840    -0.79000
C735        C  0.73326703  0.03298478  0.26039882     0.81700
N736        N  0.77439726  0.05027030  0.24294926    -0.79000
C737        C  0.79887402  0.03501158  0.25254666     0.81800
N738        N  0.78179632  0.00119286  0.28002660    -0.80700
C739        C  0.98941844  0.26282745  0.23886051     0.79300
N740        N  0.01673596  0.27468359  0.27427499    -0.79000
C741        C  0.53731167  0.25381472  0.28109931     0.81700
N742        N  0.02324550  0.21718566  0.25717462    -0.79000
C743        C  0.99558833  0.20663572  0.22229396     0.81800
N744        N  0.98371168  0.23220468  0.21101129    -0.80700
C745        C  0.80733269  0.41134829  0.47966945     0.02200
C746        C  0.85376601  0.43331815  0.47600649    -0.14000
C747        C  0.87820806  0.43350977  0.51142475    -0.00300
C748        C  0.85385028  0.40739191  0.54680660    -0.12500
C749        C  0.81221727  0.40100350  0.55833518     0.02200
C750        C  0.78724884  0.39966855  0.52287264    -0.11900
H751        H  0.86986879  0.44959840  0.44564829     0.07800
H752        H  0.87092980  0.40176327  0.57083687     0.05300
H753        H  0.75327070  0.39018066  0.52877525     0.05100
C754        C  0.62360673  0.40268360  0.45636115     0.02200
C755        C  0.62158203  0.39230458  0.50177365    -0.14000
C756        C  0.59743302  0.40132943  0.53404891    -0.00300
C757        C  0.57628816  0.42105194  0.51982319    -0.12500
C758        C  0.58124403  0.43494072  0.47729539     0.02200
C759        C  0.60481604  0.42529605  0.44551911    -0.11900
H760        H  0.63556209  0.37488540  0.51104535     0.07800
H761        H  0.55227308  0.42317746  0.54018040     0.05300
H762        H  0.60723688  0.43413871  0.41125297     0.05100
O763        O  0.93297686  0.06659179  0.09645582    -0.81800
O764        O  0.93033478  0.02323704  0.27947282    -0.66500
O765        O  0.88887895  0.03050867  0.16966487    -1.13100
C766        C  0.95906157  0.16447789  0.21461519     1.05000
O767        O  0.93095256  0.07420985  0.32118309    -0.79700
O768        O  0.87002097  0.06866426  0.27492773    -0.67300
Ni769      Ni  0.90287912  0.01124034  0.11667495     1.34900
C770        C  0.84616528  0.06136978  0.24224500     0.83800
O771        O  0.88542529  0.46835953  0.21505162    -0.80300
O772        O  0.87768975  0.45703012  0.14032424    -0.90600
C773        C  0.93142002  0.04129556  0.31676915     0.83400
O774        O  0.96023152  0.02477394  0.12546604    -0.68800
O775        O  0.92923539  0.14747276  0.24456051    -0.88000
C776        C  0.48328188  0.03983282  0.15940658     0.84200
C777        C  0.88239702  0.44781902  0.17908132     1.05800
H778        H  0.97169497  0.10008852  0.22350201     0.37600
O779        O  0.94004889  0.08594315  0.22745659    -1.10700
O780        O  0.86187797  0.07915492  0.20420307    -0.67400
Ni781      Ni  0.91602177  0.08936355  0.17230806     1.26300
O782        O  0.96733545  0.03945518  0.19826414    -0.67600
O783        O  0.95028187  0.14866654  0.17586318    -0.79900
C784        C  0.91068073  0.07977057  0.08315145     0.83600
O785        O  0.89357743  0.09123439  0.11397873    -0.67100
Ni786      Ni  0.93005253  0.10982156  0.28062989     1.27400
Ni787      Ni  0.91133757  0.02690176  0.22328805     1.26100
H788        H  0.85712299  0.01595408  0.17244638     0.38100
O789        O  0.96285494  0.36960675  0.32436333    -0.81800
O790        O  0.90508449  0.28489347  0.12589764    -0.66500
O791        O  0.95471266  0.34857175  0.23752009    -1.13100
C792        C  0.89544591  0.41843544  0.18089247     1.05000
O793        O  0.95943248  0.34701595  0.11293726    -0.79700
O794        O  0.99372807  0.42337650  0.14581610    -0.67300
Ni795      Ni  0.94250273  0.31964541  0.29161095     1.34900
C796        C  0.50551234  0.44302419  0.18267380     0.83800
O797        O  0.95371387  0.28246622  0.19338253    -0.80300
O798        O  0.93018232  0.27025079  0.26213763    -0.90600
C799        C  0.92923689  0.31241578  0.09667916     0.83400
O800        O  0.88250150  0.30569627  0.28828646    -0.68800
O801        O  0.91207325  0.41313628  0.14428838    -0.88000
C802        C  0.85644255  0.28465990  0.25623992     0.84200
C803        C  0.95817459  0.27473590  0.23229547     1.05800
H804        H  0.87728364  0.33342925  0.17413931     0.37600
O805        O  0.90894916  0.34916313  0.17711069    -1.10700
O806        O  0.98083664  0.42930277  0.21725447    -0.67400
Ni807      Ni  0.92519919  0.37766873  0.23207724     1.26300
O808        O  0.87087465  0.27718644  0.21838425    -0.67600
O809        O  0.89599097  0.40494278  0.21907466    -0.79900
C810        C  0.96209370  0.40153841  0.31800065     0.83600
O811        O  0.93948343  0.40401133  0.28910457    -0.67100
Ni812      Ni  0.93635404  0.38067600  0.12723718     1.27400
Ni813      Ni  0.92820445  0.31362056  0.18483284     1.26100
H814        H  0.98623121  0.36708591  0.23250498     0.38100
O815        O  0.65112647  0.04224529  0.10632026    -0.81800
O816        O  0.56479276  0.07537612  0.26646493    -0.66500
O817        O  0.62734561  0.08221731  0.16123050    -1.13100
C818        C  0.71033077  0.05446569  0.25442060     1.05000
O819        O  0.62748398  0.11028030  0.29877322    -0.79700
O820        O  0.70896930  0.13541309  0.27894241    -0.67300
Ni821      Ni  0.59777376  0.04100497  0.11523342     1.34900
C822        C  0.71305322  0.15693991  0.24617465     0.83800
O823        O  0.55533849  0.08367330  0.18328032    -0.80300
O824        O  0.54286742  0.03892359  0.12516216    -0.90600
C825        C  0.58683497  0.08329118  0.30038262     0.83400
O826        O  0.57509612  0.99343846  0.15160573    -0.68800
O827        O  0.68695586  0.05439355  0.28771374    -0.88000
C828        C  0.54681048  0.48530252  0.18277803     0.84200
C829        C  0.53011725  0.05639501  0.15435865     1.05800
H830        H  0.61944888  0.03236182  0.23841305     0.37600
O831        O  0.63393861  0.06253811  0.23776629    -1.10700
O832        O  0.70020239  0.13995959  0.20739411    -0.67400
Ni833      Ni  0.67349895  0.08080101  0.18800062     1.26300
O834        O  0.54980786  0.01443004  0.20870303    -0.67600
O835        O  0.71595576  0.07364346  0.21775627    -0.79900
C836        C  0.68563393  0.07796617  0.09841726     0.83600
O837        O  0.70857921  0.09923536  0.13211662    -0.67100
Ni838      Ni  0.65761202  0.08316168  0.29487718     1.27400
Ni839      Ni  0.59404521  0.07528867  0.21300542     1.26100
H840        H  0.63888191  0.11012398  0.15078711     0.38100
O841        O  0.54733817  0.44743847  0.42242479    -0.81800
O842        O  0.94695921  0.99867398  0.35035742    -0.66500
O843        O  0.53821713  0.01225573  0.41569601    -1.13100
C844        C  0.92682662  0.46596884  0.51572069     1.05000
O845        O  0.93484170  0.03967338  0.39522153    -0.79700
O846        O  0.99781988  0.06966229  0.45430720    -0.67300
Ni847      Ni  0.57189704  0.49414949  0.38571458     1.34900
C848        C  0.52990790  0.07466103  0.47522864     0.83800
O849        O  0.52807890  0.02436202  0.33000472    -0.80300
O850        O  0.59463810  0.04189667  0.34956020    -0.90600
C851        C  0.93663397  0.02499583  0.35641503     0.83400
O852        O  0.53092973  0.45685968  0.34141221    -0.68800
O853        O  0.94085087  0.50460513  0.51123473    -0.88000
C854        C  0.98923071  0.43748648  0.34499175     0.84200
C855        C  0.56945420  0.04903287  0.32927717     1.05800
H856        H  0.93318636  0.45987188  0.42774400     0.37600
O857        O  0.95847321  0.48798875  0.43278236    -1.10700
O858        O  0.52844475  0.04292313  0.49215761    -0.67400
Ni859      Ni  0.00045674  0.48454665  0.46521433     1.26300
O860        O  0.97019571  0.45023068  0.36964249    -0.67600
O861        O  0.95540535  0.45583542  0.51228736    -0.79900
C862        C  0.55610993  0.45316381  0.46320932     0.83600
O863        O  0.54296263  0.47317423  0.48909550    -0.67100
Ni864      Ni  0.93838270  0.02225992  0.45381778     1.27400
Ni865      Ni  0.49316836  0.00668266  0.38219722     1.26100
H866        H  0.55908776  0.04166030  0.42238128     0.38100
C867        C  0.60985183  0.19521269  0.46575514     0.02200
C868        C  0.58397328  0.15198729  0.45189055    -0.14000
C869        C  0.56662721  0.11981869  0.48390949    -0.00300
C870        C  0.57615774  0.13193133  0.52810891    -0.12500
C871        C  0.59257834  0.17338822  0.54431247     0.02200
C872        C  0.61138267  0.20540448  0.51258888    -0.11900
H873        H  0.57839200  0.14347272  0.41677530     0.07800
H874        H  0.56400566  0.10654109  0.54998461     0.05300
H875        H  0.62636784  0.23786050  0.52393250     0.05100
O876        O  0.58326375  0.10625990  0.87351103    -0.81800
O877        O  0.97685122  0.44856327  0.00732491    -0.66500
O878        O  0.54729942  0.03726411  0.92250006    -1.13100
C879        C  0.92341541  0.43670143  0.84333349     1.05000
O880        O  0.99824254  0.42410781  0.95245545    -0.79700
O881        O  0.49714801  0.42207001  0.86463371    -0.67300
Ni882      Ni  0.56989044  0.09497383  0.93465104     1.34900
C883        C  0.52255238  0.45296546  0.84068729     0.83800
O884        O  0.55822973  0.02938843  0.01155905    -0.80300
O885        O  0.56299802  0.08668025  0.99578357    -0.90600
C886        C  0.97586425  0.41667302  0.98784499     0.81400
O887        O  0.51029917  0.08032737  0.93164502    -0.68800
O888        O  0.91832742  0.40896893  0.86936476    -0.88000
C889        C  0.47928774  0.05628731  0.95920931     0.84200
C890        C  0.58131873  0.06912425  0.00879933     1.05800
H891        H  0.94385264  0.46678483  0.93404760     0.37600
O892        O  0.97113111  0.46922372  0.92474361    -1.10700
O893        O  0.52945345  0.48886293  0.84773927    -0.67400
Ni894      Ni  0.49955371  0.00959790  0.88204857     1.26300
O895        O  0.98068715  0.02819842  0.98198563    -0.67600
O896        O  0.95147143  0.47655700  0.84536084    -0.79900
C897        C  0.56501334  0.08449966  0.83871869     0.83600
O898        O  0.52749578  0.05053687  0.83838101    -0.67100
Ni899      Ni  0.95726993  0.41481198  0.91139259     1.27400
Ni900      Ni  0.51259215  0.49812563  0.96872716     1.26100
H901        H  0.57107360  0.03386621  0.91270769     0.38100
O902        O  0.55174906  0.38237791  0.59752553    -0.81800
O903        O  0.54453225  0.45816396  0.76478934    -0.66500
O904        O  0.59202799  0.44392566  0.65550306    -1.13100
C905        C  0.59094000  0.34634201  0.72855651     1.05000
O906        O  0.56067490  0.42509351  0.81219511    -0.79700
O907        O  0.63384027  0.45900103  0.75970645    -0.67300
Ni908      Ni  0.56625678  0.43832306  0.60185599     1.34900
C909        C  0.66149913  0.46438304  0.72872973     0.83800
O910        O  0.57368045  0.99798554  0.68593980    -0.80300
O911        O  0.58095613  0.99394608  0.60975928    -0.90600
C912        C  0.54462685  0.44598403  0.80356358     0.83400
O913        O  0.50777131  0.42148240  0.61638598    -0.68800
O914        O  0.61686429  0.37983388  0.74945002    -0.88000
C915        C  0.98896452  0.41705700  0.65384533     0.84200
C916        C  0.58026450  0.01214130  0.64646393     1.05800
H917        H  0.53053783  0.37553644  0.72552299     0.37600
O918        O  0.56097888  0.39901857  0.72465460    -1.10700
O919        O  0.65092208  0.43786534  0.69493332    -0.67400
Ni920      Ni  0.59156483  0.39677700  0.66996060     1.26300
O921        O  0.50619041  0.41792979  0.69007556    -0.67600
O922        O  0.58783824  0.34762337  0.68724415    -0.79900
C923        C  0.58687972  0.38700044  0.58135365     0.83600
O924        O  0.61531851  0.39396366  0.61005648    -0.67100
Ni925      Ni  0.58933251  0.40397130  0.77848554     1.27400
Ni926      Ni  0.56672606  0.44961489  0.70832721     1.26100
H927        H  0.62206448  0.46792846  0.65284094     0.38100
O928        O  0.61281566  0.13887726  0.79299767    -0.81800
O929        O  0.60425896  0.20263079  0.62297485    -0.66500
O930        O  0.56181561  0.13760411  0.73080629    -1.13100
C931        C  0.58424875  0.05065817  0.64545034     1.05000
O932        O  0.54392261  0.14474280  0.60588916    -0.79700
O933        O  0.49872303  0.07400468  0.64740712    -0.67300
Ni934      Ni  0.57993880  0.16267390  0.78796197     1.34900
C935        C  0.99183730  0.04893517  0.67713348     0.83800
O936        O  0.57469850  0.21363335  0.71127237    -0.80300
O937        O  0.54796344  0.18705055  0.78035259    -0.90600
C938        C  0.57915332  0.17704708  0.59215792     0.83400
O939        O  0.63348025  0.21182531  0.77101852    -0.68800
O940        O  0.56050982  0.05471501  0.61844540    -0.88000
C941        C  0.65859363  0.21266524  0.73971938     0.84200
C942        C  0.55397286  0.21065690  0.74876831     1.05800
H943        H  0.62127753  0.14317393  0.64325177     0.37600
O944        O  0.59158661  0.13146715  0.65526567    -1.10700
O945        O  0.52289855  0.05553682  0.70081242    -0.67400
Ni946      Ni  0.58267934  0.10394450  0.70796430     1.26300
O947        O  0.64467399  0.20022966  0.70025850    -0.67600
O948        O  0.60370546  0.07448726  0.67889240    -0.79900
C949        C  0.58768954  0.10018498  0.79686525     0.83600
O950        O  0.57458435  0.07711175  0.76230766    -0.67100
Ni951      Ni  0.55114697  0.09949713  0.61148410     1.27400
Ni952      Ni  0.58424429  0.17325909  0.68075201     1.26100
H953        H  0.52995159  0.12160858  0.73077426     0.38100
O954        O  0.84741398  0.45365460  0.61259486    -0.81800
O955        O  0.92098504  0.43565407  0.76955372    -0.66500
O956        O  0.86136079  0.41191310  0.66609320    -1.13100
C957        C  0.78413086  0.46028326  0.75607522     1.05000
O958        O  0.85851483  0.40061585  0.80748696    -0.79700
O959        O  0.78176701  0.37353371  0.78599812    -0.67300
Ni960      Ni  0.89426294  0.44531484  0.61786714     1.34900
C961        C  0.78216328  0.35063313  0.75382403     0.83800
O962        O  0.92564926  0.40367354  0.69227709    -0.80300
O963        O  0.94166041  0.43564803  0.62622395    -0.90600
C964        C  0.89961701  0.42211256  0.80525582     0.83400
O965        O  0.92434157  0.49884937  0.64649921    -0.68800
O966        O  0.80290444  0.45909390  0.79011317    -0.88000
C967        C  0.94967307  0.00817863  0.67802485     0.84200
C968        C  0.94855473  0.41688003  0.65639087     1.05800
H969        H  0.87349452  0.47495053  0.73886515     0.37600
O970        O  0.85674712  0.44462634  0.74010762    -1.10700
O971        O  0.79015945  0.36440591  0.71406983    -0.67400
Ni972      Ni  0.81826132  0.42182579  0.69154476     1.26300
O973        O  0.94227011  0.48108944  0.70589019    -0.67600
O974        O  0.77827972  0.43713944  0.72022129    -0.79900
C975        C  0.81147656  0.42001291  0.60292211     0.83600
O976        O  0.78541609  0.40003274  0.63589634    -0.67100
Ni977      Ni  0.83079105  0.42926789  0.79865098     1.27400
Ni978      Ni  0.89246048  0.42441341  0.71754329     1.26100
H979        H  0.84829201  0.38265190  0.65733330     0.38100
C980        C  0.69960019  0.10563872  0.97544291     0.02200
C981        C  0.65709676  0.09822463  0.97115723    -0.14000
C982        C  0.62999982  0.09187122  0.00988330    -0.00300
C983        C  0.64715596  0.09755129  0.05158478    -0.12500
C984        C  0.68547714  0.09803684  0.05711568     0.02200
C985        C  0.71213420  0.10298655  0.01896159    -0.11900
H986        H  0.64422459  0.09447884  0.93832958     0.07800
H987        H  0.62618513  0.09445466  0.07979454     0.05300
H988        H  0.74169573  0.10298263  0.02297765     0.05100
C989        C  0.91334192  0.29645088  0.96787269     0.02200
C990        C  0.93258493  0.33990857  0.96049579    -0.14000
C991        C  0.94360005  0.37025202  0.99574849    -0.00300
C992        C  0.93128237  0.35584657  0.03822589    -0.12500
C993        C  0.91860559  0.31461053  0.04920987     0.02200
C994        C  0.90873415  0.28433491  0.01343696    -0.11900
H995        H  0.94079051  0.35053617  0.92655647     0.07800
H996        H  0.93920779  0.38007684  0.06298715     0.05300
H997        H  0.89898730  0.25271100  0.02074816     0.05100
C998        C  0.91276274  0.11004716  0.96099021     0.02200
C999        C  0.90158759  0.10578875  0.00769620    -0.14000
C1000       C  0.90855764  0.07959744  0.03322055    -0.00300
C1001       C  0.92330659  0.05564702  0.01073975    -0.12500
C1002       C  0.94431210  0.06639618  0.96931618     0.02200
C1003       C  0.93699300  0.09236746  0.94307645    -0.11900
H1004       H  0.88725678  0.12207917  0.02358290     0.07800
H1005       H  0.92549758  0.03286533  0.02867718     0.05300
H1006       H  0.94961339  0.09845679  0.90894907     0.05100
O1007       O  0.82493615  0.25577391  0.83569662    -0.81800
O1008       O  0.90927276  0.16594731  0.92549491    -0.66500
O1009       O  0.85460160  0.19874148  0.84034734    -1.13100
C1010       C  0.73011482  0.11048979  0.93653860     1.05000
O1011       O  0.85798554  0.09976366  0.91109164    -0.79700
O1012       O  0.78343884  0.06960337  0.86634379    -0.67300
Ni1013     Ni  0.88027199  0.25789998  0.82964938     1.34900
C1014       C  0.77391921  0.07847912  0.83029827     0.83800
O1015       O  0.94188800  0.21833147  0.85202549    -0.80300
O1016       O  0.93833933  0.26746317  0.81735363    -0.90600
C1017       C  0.89325228  0.12662143  0.93077817     0.83400
O1018       O  0.89390790  0.27895959  0.89083851    -0.68800
O1019       O  0.74841866  0.09013686  0.94068509    -0.88000
C1020       C  0.90104898  0.26684710  0.92650385     0.84200
C1021       C  0.95819633  0.24932699  0.82552043     1.05800
H1022       H  0.82614190  0.16700821  0.93664415     0.37600
O1023       O  0.82601210  0.15325011  0.90859277    -1.10700
O1024       O  0.77667748  0.11414433  0.82643276    -0.67400
Ni1025     Ni  0.79561969  0.16618924  0.86753290     1.26300
O1026       O  0.89885009  0.23194417  0.92717518    -0.67600
O1027       O  0.74040756  0.13653560  0.90469630    -0.79900
C1028       C  0.78749317  0.22872267  0.81913447     0.83600
O1029       O  0.77067857  0.18871837  0.82581415    -0.67100
Ni1030     Ni  0.80336292  0.09652549  0.92359418     1.27400
Ni1031     Ni  0.88442902  0.18566579  0.88284196     1.26100
H1032       H  0.85439457  0.18534286  0.81200158     0.38100
C1033       C  0.75990213  0.54378743  0.79300462     0.79300
N1034       N  0.78041081  0.52172914  0.78909771    -0.79000
C1035       C  0.76625735  0.48790829  0.75935929     0.81700
N1036       N  0.73141419  0.47584472  0.73454311    -0.79000
C1037       C  0.70803894  0.49372637  0.74005383     0.81800
N1038       N  0.72179699  0.52754353  0.76979382    -0.80700
C1039       C  0.54130561  0.23957006  0.75856268     0.79300
N1040       N  0.50849374  0.23186363  0.78868343    -0.79000
C1041       C  0.00002248  0.26204642  0.79926515     0.81700
N1042       N  0.52664152  0.30084322  0.78021971    -0.79000
C1043       C  0.56096815  0.30785106  0.75158656     0.81800
N1044       N  0.56686188  0.27700083  0.74052006    -0.80700
C1045       C  0.76467035  0.24652090  0.79270211     0.79300
N1046       N  0.72378431  0.22020749  0.77464633    -0.79000
C1047       C  0.70557523  0.23584678  0.74898077     0.81700
N1048       N  0.72676149  0.27725465  0.74255668    -0.79000
C1049       C  0.76540857  0.30488609  0.76104292     0.81800
N1050       N  0.78488762  0.28971197  0.78637230    -0.80700
O1051       O  0.58040564  0.80286789  0.33852985    -0.81800
O1052       O  0.75676518  0.90855610  0.42741021    -0.66500
O1053       O  0.67074158  0.84281858  0.33715274    -1.13100
C1054       C  0.63811437  0.73052524  0.43389241     1.05000
O1055       O  0.77814612  0.86476528  0.41666781    -0.79700
O1056       O  0.74069175  0.78902429  0.37257231    -0.67300
Ni1057     Ni  0.62956582  0.85779167  0.32422746     1.34900
C1058       C  0.72199624  0.77591096  0.33513266     0.83800
O1059       O  0.73516749  0.93120929  0.34902242    -0.80300
O1060       O  0.67642617  0.91391851  0.30847953    -0.90600
C1061       C  0.78057656  0.89543728  0.43870761     0.83400
O1062       O  0.62136004  0.87775418  0.38166088    -0.68800
O1063       O  0.67859845  0.75470703  0.44452887    -0.88000
C1064       C  0.64135016  0.88810173  0.41823851     0.84200
C1065       C  0.71623223  0.94006358  0.31995360     1.05800
H1066       H  0.67271111  0.82316863  0.43475961     0.37600
O1067       O  0.68940637  0.82383917  0.40824289    -1.10700
O1068       O  0.68616948  0.77487682  0.32785856    -0.67400
Ni1069     Ni  0.64642221  0.78845018  0.36477597     1.26300
O1070       O  0.67589158  0.88768544  0.42227212    -0.67600
O1071       O  0.62192286  0.73707699  0.40013285    -0.79900
C1072       C  0.57340784  0.77122670  0.31507372     0.83600
O1073       O  0.59926798  0.75817841  0.31999994    -0.67100
Ni1074     Ni  0.72826876  0.80945690  0.42820806     1.27400
Ni1075     Ni  0.71353487  0.87807450  0.38114794     1.26100
H1076       H  0.68626781  0.84342932  0.30970436     0.38100
C1077       C  0.74312867  0.75972562  0.30034756     0.79300
N1078       N  0.78856380  0.78120521  0.29276103    -0.79000
C1079       C  0.80724357  0.76448828  0.26446241     0.81700
N1080       N  0.78054221  0.72569002  0.24596072    -0.79000
C1081       C  0.73651107  0.70296406  0.25449596     0.81800
N1082       N  0.71795700  0.71984620  0.28197222    -0.80700
C1083       C  0.73935359  0.48189418  0.29662477     0.79300
N1084       N  0.71556105  0.49863919  0.28682744    -0.79000
C1085       C  0.73326666  0.53298560  0.26039887     0.81700
N1086       N  0.77439610  0.55026952  0.24294737    -0.79000
C1087       C  0.79887145  0.53500842  0.25254187     0.81800
N1088       N  0.78179310  0.50118917  0.28002100    -0.80700
C1089       C  0.98941871  0.76282743  0.23886081     0.79300
N1090       N  0.01673787  0.77468416  0.27427376    -0.79000
C1091       C  0.53731195  0.75381363  0.28109828     0.81700
N1092       N  0.02324200  0.71718262  0.25717620    -0.79000
C1093       C  0.99558385  0.70663266  0.22229601     0.81800
N1094       N  0.98370766  0.73220197  0.21101367    -0.80700
C1095       C  0.80733222  0.91134751  0.47967231     0.02200
C1096       C  0.85376547  0.93331719  0.47600990    -0.14000
C1097       C  0.87820697  0.93350844  0.51142837    -0.00300
C1098       C  0.85384852  0.90739061  0.54681013    -0.12500
C1099       C  0.81221546  0.90100249  0.55833801     0.02200
C1100       C  0.78724763  0.89966749  0.52287504    -0.11900
H1101       H  0.86986858  0.94959757  0.44565187     0.07800
H1102       H  0.87092710  0.90176067  0.57084023     0.05300
H1103       H  0.75326943  0.89017964  0.52877704     0.05100
C1104       C  0.62360671  0.90268342  0.45636368     0.02200
C1105       C  0.62158035  0.89230273  0.50177585    -0.14000
C1106       C  0.59742895  0.90132515  0.53405054    -0.00300
C1107       C  0.57628321  0.92104665  0.51982457    -0.12500
C1108       C  0.58124250  0.93493908  0.47729804     0.02200
C1109       C  0.60481659  0.92529655  0.44552205    -0.11900
H1110       H  0.63556077  0.87488386  0.51104751     0.07800
H1111       H  0.55226525  0.92316882  0.54018031     0.05300
H1112       H  0.60723914  0.93414101  0.41125635     0.05100
O1113       O  0.93297701  0.56659263  0.09645024    -0.81800
O1114       O  0.93033004  0.52323223  0.27946814    -0.66500
O1115       O  0.88887894  0.53050710  0.16965793    -1.13100
C1116       C  0.95905792  0.66447474  0.21461348     1.05000
O1117       O  0.93095283  0.57420784  0.32117776    -0.79700
O1118       O  0.87001853  0.56865798  0.27492181    -0.67300
Ni1119     Ni  0.90288191  0.51124093  0.11666799     1.34900
C1120       C  0.84616282  0.56136517  0.24223953     0.83800
O1121       O  0.88542966  0.96836261  0.21505814    -0.80300
O1122       O  0.87768267  0.95702942  0.14033209    -0.90600
C1123       C  0.93141856  0.54129273  0.31676420     0.83400
O1124       O  0.96023517  0.52477851  0.12545986    -0.68800
O1125       O  0.92922986  0.64746730  0.24455646    -0.88000
C1126       C  0.48328237  0.53983145  0.15940187     0.84200
C1127       C  0.88239350  0.94781896  0.17908788     1.05800
H1128       H  0.97169375  0.60008530  0.22349709     0.37600
O1129       O  0.94004769  0.58594037  0.22745138    -1.10700
O1130       O  0.86187582  0.57915119  0.20419800    -0.67400
Ni1131     Ni  0.91602081  0.58936195  0.17230306     1.26300
O1132       O  0.96733335  0.53945009  0.19826009    -0.67600
O1133       O  0.95028050  0.64866534  0.17586047    -0.79900
C1134       C  0.91067963  0.57977008  0.08314631     0.83600
O1135       O  0.89357641  0.59123367  0.11397394    -0.67100
Ni1136     Ni  0.93004959  0.60981752  0.28062492     1.27400
Ni1137     Ni  0.91133531  0.52689875  0.22328213     1.26100
H1138       H  0.85712287  0.51595206  0.17243794     0.38100
O1139       O  0.96285460  0.86960697  0.32436700    -0.81800
O1140       O  0.90508870  0.78489647  0.12589838    -0.66500
O1141       O  0.95471281  0.84857241  0.23752305    -1.13100
C1142       C  0.89543919  0.91843272  0.18089610     1.05000
O1143       O  0.95943436  0.84702115  0.11294565    -0.79700
O1144       O  0.99371729  0.92338515  0.14581081    -0.67300
Ni1145     Ni  0.94250346  0.81964597  0.29161345     1.34900
C1146       C  0.50550915  0.94302712  0.18267118     0.83800
O1147       O  0.95371694  0.78246962  0.19338405    -0.80300
O1148       O  0.93018419  0.77025208  0.26213888    -0.90600
C1149       C  0.92924359  0.81242117  0.09668281     0.83400
O1150       O  0.88250209  0.80569597  0.28828878    -0.68800
O1151       O  0.91205577  0.91312623  0.14428815    -0.88000
C1152       C  0.85644337  0.78465943  0.25624215     0.84200
C1153       C  0.95817678  0.77473795  0.23229665     1.05800
H1154       H  0.87728153  0.83342813  0.17414688     0.37600
O1155       O  0.90894745  0.84916311  0.17711524    -1.10700
O1156       O  0.98083971  0.92930135  0.21725568    -0.67400
Ni1157     Ni  0.92520050  0.87767031  0.23208039     1.26300
O1158       O  0.87087580  0.77718601  0.21838655    -0.67600
O1159       O  0.89599397  0.90494646  0.21907879    -0.79900
C1160       C  0.96209527  0.90153967  0.31800364     0.83600
O1161       O  0.93948728  0.90401428  0.28910639    -0.67100
Ni1162     Ni  0.93634509  0.88067316  0.12723914     1.27400
Ni1163     Ni  0.92820552  0.81362214  0.18483537     1.26100
H1164       H  0.98623143  0.86708628  0.23250810     0.38100
O1165       O  0.65112824  0.54224335  0.10632281    -0.81800
O1166       O  0.56479189  0.57537681  0.26646305    -0.66500
O1167       O  0.62734554  0.58221606  0.16123004    -1.13100
C1168       C  0.71033132  0.55446768  0.25442181     1.05000
O1169       O  0.62748258  0.61028089  0.29877226    -0.79700
O1170       O  0.70896841  0.63541441  0.27894292    -0.67300
Ni1171     Ni  0.59777464  0.54100156  0.11523465     1.34900
C1172       C  0.71305272  0.65694114  0.24617494     0.83800
O1173       O  0.55533777  0.58367109  0.18327791    -0.80300
O1174       O  0.54286766  0.53891929  0.12516200    -0.90600
C1175       C  0.58683368  0.58329122  0.30038083     0.83400
O1176       O  0.57509918  0.49343701  0.15160947    -0.68800
O1177       O  0.68695612  0.55439533  0.28771489    -0.88000
C1178       C  0.54680865  0.98530421  0.18277565     0.84200
C1179       C  0.53011729  0.55639219  0.15435636     1.05800
H1180       H  0.61944953  0.53236263  0.23841367     0.37600
O1181       O  0.63393870  0.56253883  0.23776660    -1.10700
O1182       O  0.70020188  0.63996066  0.20739435    -0.67400
Ni1183     Ni  0.67349948  0.58080189  0.18800128     1.26300
O1184       O  0.54980770  0.51442872  0.20870336    -0.67600
O1185       O  0.71595687  0.57364608  0.21775785    -0.79900
C1186       C  0.68563466  0.57796446  0.09841827     0.83600
O1187       O  0.70857967  0.59923576  0.13211706    -0.67100
Ni1188     Ni  0.65761142  0.58316291  0.29487753     1.27400
Ni1189     Ni  0.59404464  0.57528790  0.21300435     1.26100
H1190       H  0.63888117  0.61012223  0.15078554     0.38100
O1191       O  0.54733801  0.94743857  0.42242777    -0.81800
O1192       O  0.94695914  0.49867247  0.35035349    -0.66500
O1193       O  0.53821729  0.51225552  0.41569185    -1.13100
C1194       C  0.92682555  0.96596743  0.51572427     1.05000
O1195       O  0.93484375  0.53967382  0.39521654    -0.79700
O1196       O  0.99782195  0.56966286  0.45430279    -0.67300
Ni1197     Ni  0.57189726  0.99415024  0.38571856     1.34900
C1198       C  0.52990812  0.57466133  0.47522431     0.83800
O1199       O  0.52807838  0.52435984  0.33000015    -0.80300
O1200       O  0.59463771  0.54189563  0.34955594    -0.90600
C1201       C  0.93663419  0.52499454  0.35641042     0.83400
O1202       O  0.53093047  0.95686088  0.34141607    -0.68800
O1203       O  0.94084968  0.00460372  0.51123871    -0.88000
C1204       C  0.98923184  0.93748754  0.34499502     0.84200
C1205       C  0.56945347  0.54903168  0.32927341     1.05800
H1206       H  0.93318598  0.95987156  0.42774669     0.37600
O1207       O  0.95847250  0.98798850  0.43278563    -1.10700
O1208       O  0.52844505  0.54292353  0.49215335    -0.67400
Ni1209     Ni  0.00045598  0.98454626  0.46521736     1.26300
O1210       O  0.97019631  0.95023181  0.36964489    -0.67600
O1211       O  0.95540433  0.95583413  0.51229008    -0.79900
C1212       C  0.55610910  0.95316296  0.46321237     0.83600
O1213       O  0.54296174  0.97317313  0.48909895    -0.67100
Ni1214     Ni  0.93838443  0.52226107  0.45381342     1.27400
Ni1215     Ni  0.49316819  0.50668160  0.38219279     1.26100
H1216       H  0.55908784  0.54166018  0.42237679     0.38100
C1217       C  0.60985119  0.69521320  0.46575545     0.02200
C1218       C  0.58397440  0.65198817  0.45188958    -0.14000
C1219       C  0.56662574  0.61981898  0.48390774    -0.00300
C1220       C  0.57615053  0.63193036  0.52810812    -0.12500
C1221       C  0.59257365  0.67338765  0.54431245     0.02200
C1222       C  0.61138033  0.70540440  0.51258934    -0.11900
H1223       H  0.57839619  0.64347437  0.41677390     0.07800
H1224       H  0.56399191  0.60653856  0.54998285     0.05300
H1225       H  0.62636602  0.73786038  0.52393334     0.05100
O1226       O  0.58326464  0.60625272  0.87351389    -0.81800
O1227       O  0.97686022  0.94856818  0.00732010    -0.66500
O1228       O  0.54729593  0.53725675  0.92250185    -1.13100
C1229       C  0.92340841  0.93670555  0.84333731     1.05000
O1230       O  0.99824274  0.92411136  0.95244273    -0.79700
O1231       O  0.49711871  0.92206081  0.86461921    -0.67300
Ni1232     Ni  0.56988955  0.59496734  0.93465303     1.34900
C1233       C  0.52253999  0.95295982  0.84068387     0.83800
O1234       O  0.55822313  0.52938193  0.01156364    -0.80300
O1235       O  0.56299477  0.58667408  0.99578499    -0.90600
C1236       C  0.97587207  0.91667814  0.98783747     0.81400
O1237       O  0.51029940  0.58032420  0.93164507    -0.68800
O1238       O  0.91830708  0.90897519  0.86938015    -0.88000
C1239       C  0.47928554  0.55628343  0.95920702     0.84200
C1240       C  0.58131444  0.56911739  0.00880115     1.05800
H1241       H  0.94385627  0.96679764  0.93404701     0.37600
O1242       O  0.97113219  0.96923149  0.92474282    -1.10700
O1243       O  0.52946180  0.98886401  0.84774869    -0.67400
Ni1244     Ni  0.49954851  0.50959320  0.88205174     1.26300
O1245       O  0.98068264  0.52819313  0.98198357    -0.67600
O1246       O  0.95147676  0.97655913  0.84535468    -0.79900
C1247       C  0.56500818  0.58449555  0.83872224     0.83600
O1248       O  0.52748689  0.55053659  0.83838694    -0.67100
Ni1249     Ni  0.95725912  0.91481593  0.91139395     1.27400
Ni1250     Ni  0.51259741  0.99813234  0.96872444     1.26100
H1251       H  0.57106836  0.53385667  0.91270811     0.38100
O1252       O  0.55174332  0.88237107  0.59752622    -0.81800
O1253       O  0.54452022  0.95815607  0.76478704    -0.66500
O1254       O  0.59201985  0.94392008  0.65550301    -1.13100
C1255       C  0.59094018  0.84634234  0.72855938     1.05000
O1256       O  0.56066305  0.92508723  0.81219487    -0.79700
O1257       O  0.63383201  0.95899934  0.75970804    -0.67300
Ni1258     Ni  0.56624817  0.93831543  0.60185559     1.34900
C1259       C  0.66149217  0.96438190  0.72873233     0.83800
O1260       O  0.57369347  0.49799376  0.68594183    -0.80300
O1261       O  0.58096647  0.49395405  0.60976095    -0.90600
C1262       C  0.54461394  0.94597645  0.80356156     0.83400
O1263       O  0.50776214  0.92147400  0.61638540    -0.68800
O1264       O  0.61686192  0.87983486  0.74945319    -0.88000
C1265       C  0.98895540  0.91704834  0.65384412     0.84200
C1266       C  0.58027589  0.51214922  0.64646601     1.05800
H1267       H  0.53053216  0.87553030  0.72552311     0.37600
O1268       O  0.56097260  0.89901369  0.72465506    -1.10700
O1269       O  0.65091643  0.93786484  0.69493539    -0.67400
Ni1270     Ni  0.59156031  0.89677367  0.66996195     1.26300
O1271       O  0.50618110  0.91791891  0.69007437    -0.67600
O1272       O  0.58783864  0.84762286  0.68724682    -0.79900
C1273       C  0.58687522  0.88699556  0.58135501     0.83600
O1274       O  0.61531460  0.89396086  0.61005823    -0.67100
Ni1275     Ni  0.58932566  0.90396871  0.77848707     1.27400
Ni1276     Ni  0.56671624  0.94960814  0.70832629     1.26100
H1277       H  0.62205575  0.96792392  0.65284100     0.38100
O1278       O  0.61280748  0.63887425  0.79300149    -0.81800
O1279       O  0.60425632  0.70263102  0.62297552    -0.66500
O1280       O  0.56181053  0.63760279  0.73080674    -1.13100
C1281       C  0.58425675  0.55066447  0.64545293     1.05000
O1282       O  0.54392154  0.64474181  0.60589106    -0.79700
O1283       O  0.49872445  0.57400207  0.64740207    -0.67300
Ni1284     Ni  0.57993099  0.66267105  0.78796332     1.34900
C1285       C  0.99183868  0.54893487  0.67713089     0.83800
O1286       O  0.57469255  0.71363156  0.71127221    -0.80300
O1287       O  0.54795645  0.68704823  0.78035211    -0.90600
C1288       C  0.57915058  0.67704675  0.59215887     0.83400
O1289       O  0.63347396  0.71182246  0.77102286    -0.68800
O1290       O  0.56051890  0.55472041  0.61844559    -0.88000
C1291       C  0.65858819  0.71266394  0.73972370     0.84200
C1292       C  0.55396688  0.71065512  0.74876801     1.05800
H1293       H  0.62127903  0.64317733  0.64325647     0.37600
O1294       O  0.59158726  0.63146928  0.65526845    -1.10700
O1295       O  0.52289889  0.55553679  0.70081068    -0.67400
Ni1296     Ni  0.58267741  0.60394554  0.70796690     1.26300
O1297       O  0.64466985  0.70023077  0.70026206    -0.67600
O1298       O  0.60370853  0.57449198  0.67889738    -0.79900
C1299       C  0.58768186  0.60018183  0.79686798     0.83600
O1300       O  0.57457712  0.57710979  0.76230973    -0.67100
Ni1301     Ni  0.55115147  0.59949951  0.61148446     1.27400
Ni1302     Ni  0.58424095  0.67325890  0.68075301     1.26100
H1303       H  0.52994651  0.62160635  0.73077317     0.38100
O1304       O  0.84741109  0.95365419  0.61259741    -0.81800
O1305       O  0.92098032  0.93565334  0.76955633    -0.66500
O1306       O  0.86135694  0.91191251  0.66609548    -1.13100
C1307       C  0.78412487  0.96028153  0.75607655     1.05000
O1308       O  0.85850932  0.90061529  0.80748783    -0.79700
O1309       O  0.78176153  0.87353234  0.78599938    -0.67300
Ni1310     Ni  0.89425901  0.94531305  0.61786873     1.34900
C1311       C  0.78215867  0.85063195  0.75382560     0.83800
O1312       O  0.92564467  0.90367233  0.69227953    -0.80300
O1313       O  0.94165435  0.93564348  0.62622432    -0.90600
C1314       C  0.89961143  0.92211417  0.80525852     0.83400
O1315       O  0.92434178  0.99884881  0.64649850    -0.68800
O1316       O  0.80289807  0.95909201  0.79011469    -0.88000
C1317       C  0.94967462  0.50817908  0.67802370     0.84200
C1318       C  0.94854804  0.91687543  0.65639159     1.05800
H1319       H  0.87348987  0.97494996  0.73886714     0.37600
O1320       O  0.85674248  0.94462576  0.74010955    -1.10700
O1321       O  0.79015523  0.86440488  0.71407140    -0.67400
Ni1322     Ni  0.81825707  0.92182505  0.69154649     1.26300
O1323       O  0.94226663  0.98108907  0.70589252    -0.67600
O1324       O  0.77827479  0.93713843  0.72022227    -0.79900
C1325       C  0.81147385  0.92001242  0.60292420     0.83600
O1326       O  0.78541260  0.90003227  0.63589793    -0.67100
Ni1327     Ni  0.83078514  0.92926664  0.79865252     1.27400
Ni1328     Ni  0.89245630  0.92441284  0.71754552     1.26100
H1329       H  0.84828811  0.88265121  0.65733599     0.38100
C1330       C  0.69959765  0.60563262  0.97544214     0.02200
C1331       C  0.65709286  0.59821602  0.97115666    -0.14000
C1332       C  0.62999598  0.59186259  0.00988315    -0.00300
C1333       C  0.64715338  0.59754476  0.05158431    -0.12500
C1334       C  0.68547577  0.59803248  0.05711535     0.02200
C1335       C  0.71213260  0.60298208  0.01896107    -0.11900
H1336       H  0.64422021  0.59446942  0.93832911     0.07800
H1337       H  0.62618325  0.59444927  0.07979421     0.05300
H1338       H  0.74169517  0.60298002  0.02297736     0.05100
C1339       C  0.91334517  0.79645419  0.96787386     0.02200
C1340       C  0.93258912  0.83991179  0.96049496    -0.14000
C1341       C  0.94361212  0.87025794  0.99574623    -0.00300
C1342       C  0.93130536  0.85585707  0.03822568    -0.12500
C1343       C  0.91861986  0.81461867  0.04921086     0.02200
C1344       C  0.90873976  0.78433997  0.01343885    -0.11900
H1345       H  0.94078924  0.85053739  0.92655472     0.07800
H1346       H  0.93924304  0.88009145  0.06298603     0.05300
H1347       H  0.89898791  0.75271482  0.02075111     0.05100
C1348       C  0.91276393  0.61004726  0.96098562     0.02200
C1349       C  0.90158776  0.60578860  0.00769122    -0.14000
C1350       C  0.90855539  0.57959577  0.03321554    -0.00300
C1351       C  0.92330298  0.55564405  0.01073500    -0.12500
C1352       C  0.94431078  0.56639391  0.96931241     0.02200
C1353       C  0.93699378  0.59236669  0.94307243    -0.11900
H1354       H  0.88725799  0.62208005  0.02357770     0.07800
H1355       H  0.92549206  0.53286138  0.02867275     0.05300
H1356       H  0.94961543  0.59845654  0.90894550     0.05100
O1357       O  0.82493310  0.75577348  0.83569863    -0.81800
O1358       O  0.90927332  0.66594873  0.92549419    -0.66500
O1359       O  0.85460079  0.69874289  0.84034850    -1.13100
C1360       C  0.73011384  0.61048576  0.93653801     1.05000
O1361       O  0.85798840  0.59976572  0.91108594    -0.79700
O1362       O  0.78344014  0.56960358  0.86634205    -0.67300
Ni1363     Ni  0.88026990  0.75790111  0.82965116     1.34900
C1364       C  0.77392227  0.57848012  0.83029604     0.83800
O1365       O  0.94188720  0.71833398  0.85202675    -0.80300
O1366       O  0.93833761  0.76746509  0.81735473    -0.90600
C1367       C  0.89325444  0.62662270  0.93077387     0.83400
O1368       O  0.89390651  0.77896077  0.89084050    -0.68800
O1369       O  0.74842066  0.59013563  0.94068564    -0.88000
C1370       C  0.90104870  0.76684870  0.92650560     0.84200
C1371       C  0.95819489  0.74932915  0.82552160     1.05800
H1372       H  0.82614094  0.66700741  0.93664422     0.37600
O1373       O  0.82601188  0.65325005  0.90859254    -1.10700
O1374       O  0.77668001  0.61414514  0.82643083    -0.67400
Ni1375     Ni  0.79561853  0.66618827  0.86753290     1.26300
O1376       O  0.89884939  0.73194546  0.92717668    -0.67600
O1377       O  0.74040532  0.63653109  0.90469529    -0.79900
C1378       C  0.78749040  0.72872189  0.81913587     0.83600
O1379       O  0.77067668  0.68871748  0.82581470    -0.67100
Ni1380     Ni  0.80336515  0.59652558  0.92359213     1.27400
Ni1381     Ni  0.88442875  0.68566743  0.88284255     1.26100
H1382       H  0.85439463  0.68534504  0.81200249     0.38100
C1383       C  0.75989679  0.04378556  0.79300749     0.79300
N1384       N  0.78040529  0.02172722  0.78909938    -0.79000
C1385       C  0.76625092  0.98790617  0.75936120     0.81700
N1386       N  0.73140690  0.97584237  0.73454629    -0.79000
C1387       C  0.70803189  0.99372430  0.74005795     0.81800
N1388       N  0.72179077  0.02754159  0.76979802    -0.80700
C1389       C  0.54130133  0.73956935  0.75856273     0.79300
N1390       N  0.50848979  0.73186376  0.78868334    -0.79000
C1391       C  0.00002039  0.76204766  0.79926630     0.81700
N1392       N  0.52664138  0.80084488  0.78022193    -0.79000
C1393       C  0.56096786  0.80785181  0.75158924     0.81800
N1394       N  0.56685958  0.77700051  0.74052153    -0.80700
C1395       C  0.76466674  0.74651991  0.79270404     0.79300
N1396       N  0.72377976  0.72020646  0.77464998    -0.79000
C1397       C  0.70556979  0.73584571  0.74898556     0.81700
N1398       N  0.72675610  0.77725342  0.74256064    -0.79000
C1399       C  0.76540419  0.80488492  0.76104492     0.81800
N1400       N  0.78488406  0.78971095  0.78637339    -0.80700
loop_ 
_geom_bond_atom_site_label_1 
_geom_bond_atom_site_label_2 
_geom_bond_distance 
_geom_bond_site_symmetry_2 
_ccdc_geom_bond_type 
O1           Ni7   1.912       .  S
O1           C22   1.265       .  A
O2          Ni25   1.949       .  S
O2           C11   1.275       .  A
O3           Ni7   1.926       .  S
O3          Ni25   1.924       .  S
O3          Ni19   1.960       .  S
O3           H26   0.966       .  S
C4           O21   1.298       .  A
C4           O13   1.281       .  A
C4          C167   1.514       .  S
O5          Ni24   1.911       .  S
O5           C11   1.271       .  A
O6          Ni24   1.939       .  S
O6            C8   1.274       .  A
Ni7          O10   1.926       .  S
Ni7          O12   1.921       .  S
C8           O18   1.306       .  A
C8           C27   1.554       .  S
O9          Ni25   2.004       .  S
O9           C15   1.301       .  A
O10          C15   1.278       .  A
C11          C45   1.492       .  S
O12          C14   1.270       .  A
O13         Ni24   1.929       .  S
C14          O20   1.271       .  A
C14          C54   1.507       .  S
C15         C383   1.522       .  S
H16          O17   0.966       .  S
O17         Ni25   1.950       .  S
O17         Ni19   1.917       .  S
O17         Ni24   1.898       .  S
O18         Ni19   2.035       .  S
Ni19         O23   1.995       .  S
Ni19         O21   1.987       .  S
O20         Ni25   1.957       .  S
C22          O23   1.294       .  A
C22          C41   1.521       .  S
C27          N28   1.391       .  A
C27          N32   1.372       .  A
N28          C29   1.390       .  A
C29         C102   1.517       .  S
C29          N30   1.351       .  A
N30          C31   1.351       .  A
C31         C122   1.480       .  S
C31          N32   1.377       .  A
C33         C365   1.522       .  S
C33          N34   1.371       .  A
C33          N38   1.368   1_565  A
N34          C35   1.372   1_565  A
C35         C118   1.469       .  S
C35          N36   1.344       .  A
N36          C37   1.346       .  A
C37          C70   1.459       .  S
C37          N38   1.379       .  A
C39         C103   1.454       .  S
C39          N40   1.374       .  A
C39          N44   1.321       .  A
N40         C741   1.380       .  A
C41         N740   1.380       .  A
C41         N742   1.367       .  A
N42          C43   1.375       .  A
N42         C741   1.367       .  A
C43          C66   1.429       .  S
C43          N44   1.323       .  A
C45          C46   1.410       .  A
C45          C50   1.420       .  A
C46          C47   1.417       .  A
C46          H51   1.078       .  S
C47         C144   1.506       .  S
C47          C48   1.395       .  A
C48          C49   1.415       .  A
C48          H52   1.076       .  S
C49         C275   1.493       .  S
C49          C50   1.415       .  A
C50          H53   1.083       .  S
C54          C55   1.427       .  A
C54          C59   1.414       .  A
C55          C56   1.422       .  A
C55          H60   1.083       .  S
C56         C223   1.503       .  S
C56          C57   1.423       .  A
C57          C58   1.373       .  A
C57          H61   1.072       .  S
C58         C162   1.499       .  S
C58          C59   1.410       .  A
C59          H62   1.084       .  S
O63         Ni69   1.880       .  S
O63          C84   1.249       .  A
O64         Ni87   1.896       .  S
O64          C73   1.273       .  A
O65         Ni69   1.876       .  S
O65         Ni87   1.887       .  S
O65         Ni81   1.885       .  S
O65          H88   0.966       .  S
C66          O83   1.254       .  A
C66          O75   1.259       .  A
O67         Ni86   1.882       .  S
O67          C73   1.259       .  A
O68         Ni86   1.868       .  S
O68          C70   1.260       .  A
Ni69         O74   1.876       .  S
Ni69        O422   1.899   1_545  S
C70          O80   1.295       .  A
O71        Ni437   1.889       .  S
O71          C77   1.271       .  A
O72        Ni419   1.899       .  S
O72          C77   1.279       .  A
C73         C151   1.438       .  S
O74         C776   1.253       .  A
O75         Ni86   1.853       .  S
C76         O774   1.253       .  A
C76         O782   1.271       .  A
C76         C129   1.452   1_655  S
C77          C92   1.434       .  S
H78          O79   0.966       .  S
O79         Ni87   1.886       .  S
O79         Ni81   1.954       .  S
O79         Ni86   1.909       .  S
O80         Ni81   1.979       .  S
Ni81         O85   1.991       .  S
Ni81         O83   1.885       .  S
O82         Ni87   1.928       .  S
O82         C776   1.271       .  A
C84          O85   1.273       .  A
C84         C300   1.505       .  S
Ni87        O421   1.889   1_545  S
O89         Ni95   1.860       .  S
O89         C110   1.253       .  A
O90        Ni113   1.994       .  S
O90          C99   1.282       .  A
O91         Ni95   1.904       .  S
O91        Ni113   1.932       .  S
O91        Ni107   1.928       .  S
O91         H114   0.966       .  S
C92         O109   1.286       .  A
C92         O101   1.284       .  A
O93        Ni112   1.894       .  S
O93          C99   1.256       .  A
O94        Ni112   1.897       .  S
O94         C796   1.256       .  A
Ni95         O98   1.858       .  S
Ni95        O100   1.941       .  S
C96         O794   1.256   1_455  A
C96         O806   1.263   1_455  A
C96         C128   1.479       .  S
O97        Ni113   1.890       .  S
O97         C103   1.260       .  A
O98         C103   1.260       .  A
C99         C293   1.515       .  S
O100        C102   1.283       .  A
O101       Ni112   1.903       .  S
C102        O108   1.308       .  A
H104        O105   0.967       .  S
O105       Ni113   1.855       .  S
O105       Ni107   1.860       .  S
O105       Ni112   1.842       .  S
O106       Ni107   1.943       .  S
O106        C796   1.263       .  A
Ni107       O111   1.884       .  S
Ni107       O109   1.905       .  S
O108       Ni113   2.005       .  S
C110        O111   1.265       .  A
C110        C154   1.409       .  S
O115       Ni121   1.910       .  S
O115        C136   1.267       .  A
O116       Ni139   1.876       .  S
O116        C125   1.248       .  A
O117       Ni121   1.897       .  S
O117       Ni139   1.853       .  S
O117       Ni133   1.920       .  S
O117        H140   0.966       .  S
C118        O135   1.298       .  A
C118        O127   1.274       .  A
O119       Ni138   1.861       .  S
O119        C125   1.251       .  A
O120       Ni138   1.896       .  S
O120        C122   1.264       .  A
Ni121       O124   1.952       .  S
Ni121       O126   1.903   1_545  S
C122        O132   1.280       .  A
O123       Ni139   1.875       .  S
O123        C129   1.271       .  A
O124        C129   1.285       .  A
C125        C155   1.417       .  S
O126        C478   1.266       .  A
O127       Ni138   1.894       .  S
C128        O476   1.266       .  A
C128        O484   1.276       .  A
H130        O131   0.966       .  S
O131       Ni139   1.947       .  S
O131       Ni133   1.887       .  S
O131       Ni138   1.890       .  S
O132       Ni133   1.966       .  S
Ni133       O137   1.960       .  S
Ni133       O135   1.966       .  S
O134       Ni139   1.966       .  S
O134        C478   1.276   1_545  A
C136        O137   1.279       .  A
C136        C284   1.492       .  S
O141       Ni147   1.879       .  S
O141        C162   1.260       .  A
O142       Ni865   1.841   1_565  S
O142        C151   1.246   1_565  A
O143       Ni165   1.869   1_455  S
O143       Ni497   1.871   1_545  S
O143      Ni1209   1.887   1_545  S
O143        H166   0.963       .  S
C144        O161   1.284       .  A
C144        O153   1.276       .  A
O145       Ni164   1.948       .  S
O145        C151   1.279       .  A
O146       Ni164   1.906       .  S
O146        C848   1.267       .  A
Ni147       O152   1.921       .  S
Ni147       O500   1.904       .  S
Ni147       O493   1.871       .  S
C148        O158   1.306       .  A
C148        O846   1.267   1_455  A
C148        C169   1.507       .  S
O149       Ni165   1.864   1_455  S
O149        C155   1.259       .  A
O150       Ni497   1.904   1_545  S
O150        C155   1.274       .  A
O152        C854   1.268   1_455  A
O153       Ni514   1.907       .  S
C154        O160   1.236       .  A
C154        O852   1.268       .  A
H156        O157   0.964       .  S
O157       Ni159   1.915       .  S
O157      Ni1215   1.823       .  S
O157       Ni514   1.876       .  S
O158      Ni1209   2.009   1_545  S
Ni159       O161   1.954       .  S
Ni159      O1208   2.009       .  S
Ni159       O863   1.987       .  S
Ni159      O1193   1.887       .  S
O160      Ni1215   1.851       .  S
C162        O163   1.304       .  A
O163       Ni859   1.987       .  S
Ni164       O503   1.907       .  S
Ni164       O507   1.876   1_545  S
Ni165       O842   1.841   1_545  S
Ni165      O1210   1.851   1_545  S
Ni165      O1207   1.823   1_545  S
C167        C168   1.426       .  A
C167        C172   1.435       .  A
C168        C169   1.426       .  A
C168        H173   1.083       .  S
C169        C170   1.380       .  A
C170        C171   1.412       .  A
C170        H174   1.062       .  S
C171        C238   1.516       .  S
C171        C172   1.414       .  A
C172        H175   1.083       .  S
O176       Ni182   1.885       .  S
O176        C197   1.263       .  A
O177       Ni900   1.993   1_554  S
O177        C186   1.300   1_554  A
O178       Ni182   1.895       .  S
O178       Ni194   1.916   1_455  S
O178       Ni550   1.925   1_545  S
O178        H201   0.966       .  S
C179        O196   1.281       .  A
C179        O188   1.271       .  A
C179        C264   1.369       .  S
O180       Ni199   1.850       .  S
O180        C186   1.247       .  A
O181       Ni899   1.876       .  S
O181        C183   1.256   1_655  A
Ni182       O185   1.860       .  S
Ni182       O187   1.917       .  S
C183        O193   1.252       .  A
C183        C212   1.434       .  S
O184       Ni550   1.927   1_544  S
O184        C190   1.268       .  A
O185        C190   1.256   1_556  A
C186        C291   1.514       .  S
O187        C189   1.280   1_455  A
O188       Ni199   1.857       .  S
C189        O895   1.323       .  A
C189       C1002   1.523       .  S
C190        C282   1.480       .  S
H191        O192   0.967       .  S
O192       Ni199   1.866       .  S
O192       Ni900   1.860       .  S
O192      Ni1244   1.843       .  S
O193       Ni544   1.892   1_455  S
Ni194       O198   1.875   1_655  S
Ni194       O543   1.892   1_645  S
Ni194      O1246   1.867   1_545  S
Ni194      O1242   1.843   1_545  S
O195      Ni1250   2.035   1_545  S
O195        C889   1.323       .  A
O196      Ni1244   1.867       .  S
C197        O198   1.262       .  A
C197        C249   1.429       .  S
Ni199       O881   1.876       .  S
Ni200       O877   1.993   1_456  S
Ni200       O534   1.927   1_556  S
Ni200      O1245   2.035   1_455  S
Ni200       O528   1.925       .  S
Ni200       O892   1.860   1_455  S
O202       Ni208   1.888       .  S
O202        C223   1.258       .  A
O203       Ni226   1.925       .  S
O203        C212   1.277       .  A
O204       Ni208   1.849       .  S
O204       Ni226   1.851       .  S
O204       Ni220   1.856       .  S
O204        H227   0.966       .  S
C205        O222   1.258       .  A
C205        O214   1.251       .  A
C205        C343   1.444       .  S
O206       Ni225   1.859       .  S
O206        C212   1.255       .  A
O207       Ni225   1.904       .  S
O207        C209   1.267       .  A
Ni208       O213   1.879       .  S
Ni208       O561   1.879       .  S
C209        O219   1.305       .  A
C209        C337   1.471       .  S
O210       Ni576   1.870       .  S
O210        C216   1.284   1_565  A
O211       Ni558   1.879       .  S
O211        C216   1.276   1_565  A
O213        C915   1.253   1_455  A
O214       Ni225   1.848       .  S
C215        O913   1.253       .  A
C215        O921   1.273       .  A
C215        C268   1.457       .  S
C216        C231   1.391       .  S
H217        O218   0.967       .  S
O218       Ni226   1.905       .  S
O218       Ni220   1.955       .  S
O218       Ni225   1.907       .  S
O219       Ni220   1.999       .  S
Ni220       O224   1.975       .  S
Ni220       O222   1.895       .  S
O221       Ni226   1.930       .  S
O221        C915   1.273   1_455  A
C223        O224   1.283       .  A
Ni226       O560   1.870       .  S
O228       Ni234   1.862       .  S
O228        C249   1.243       .  A
O229       Ni252   1.992       .  S
O229        C238   1.287       .  A
O230       Ni234   1.883       .  S
O230       Ni252   1.907       .  S
O230       Ni246   1.892       .  S
O230        H253   0.966       .  S
C231        O248   1.267       .  A
C231        O240   1.286       .  A
O232       Ni251   1.891       .  S
O232        C238   1.260       .  A
O233       Ni251   1.893   1_655  S
O233        C935   1.254       .  A
Ni234       O237   1.863       .  S
Ni234       O239   1.881       .  S
C235        O933   1.254       .  A
C235        O945   1.262       .  A
C235        C267   1.463       .  S
O236       Ni252   1.925       .  S
O236        C242   1.294       .  A
O237        C242   1.267       .  A
O239        C241   1.261       .  A
O240       Ni251   1.930       .  S
C241        O247   1.275       .  A
C241        C347   1.460       .  S
C242        C339   1.416       .  S
H243        O244   0.967       .  S
O244       Ni252   1.867       .  S
O244       Ni246   1.859       .  S
O244       Ni251   1.854       .  S
O245       Ni246   1.940       .  S
O245        C935   1.262   1_455  A
Ni246       O250   1.894       .  S
Ni246       O248   1.830       .  S
O247       Ni252   1.949       .  S
C249        O250   1.253       .  A
O254       Ni260   1.903       .  S
O254        C275   1.262       .  A
O255       Ni278   1.819       .  S
O255        C264   1.244       .  A
O256       Ni260   1.866       .  S
O256       Ni278   1.845       .  S
O256       Ni272   1.909       .  S
O256        H279   0.967       .  S
C257        O274   1.303       .  A
C257        O266   1.274       .  A
C257        C335   1.501       .  S
O258       Ni277   1.875       .  S
O258        C264   1.245       .  A
O259       Ni277   1.911       .  S
O259        C261   1.270       .  A
Ni260       O263   1.971       .  S
Ni260       O265   1.884       .  S
C261        O271   1.283       .  A
C261        C349   1.519       .  S
O262       Ni278   1.874       .  S
O262        C268   1.268       .  A
O263        C268   1.296       .  A
O265        C617   1.251       .  A
O266       Ni277   1.918       .  S
C267        O615   1.251   1_545  A
C267        O623   1.264   1_545  A
H269        O270   0.966       .  S
O270       Ni278   1.912       .  S
O270       Ni272   1.893       .  S
O270       Ni277   1.910       .  S
O271       Ni272   1.976       .  S
Ni272       O276   1.970       .  S
Ni272       O274   1.976       .  S
O273       Ni278   1.942       .  S
O273        C617   1.264       .  A
C275        O276   1.282       .  A
C280        C310   1.510       .  S
C280        C281   1.416       .  A
C280        C285   1.433   1_556  A
C281        C282   1.422   1_556  A
C281        H286   1.082       .  S
C282        C283   1.382       .  A
C283        C284   1.396       .  A
C283        H287   1.073       .  S
C284        C285   1.409       .  A
C285        H288   1.083       .  S
C289        C320   1.539       .  S
C289        C290   1.422       .  A
C289        C294   1.439   1_556  A
C290        C291   1.421       .  A
C290        H295   1.082       .  S
C291        C292   1.368   1_556  A
C292        C293   1.423       .  A
C292        H296   1.069       .  S
C293        C294   1.437       .  A
C294        H297   1.082       .  S
C298        C317   1.528       .  S
C298        C299   1.431   1_556  A
C298        C303   1.437       .  A
C299        C300   1.420       .  A
C299        H304   1.083       .  S
C300        C301   1.412       .  A
C301        C302   1.380   1_554  A
C301        H305   1.084       .  S
C302        C889   1.523       .  S
C302        C303   1.434       .  A
C303        H306   1.083       .  S
O307       Ni313   1.959       .  S
O307        C328   1.279       .  A
O308       Ni331   1.994       .  S
O308        C317   1.288       .  A
O309       Ni313   1.943       .  S
O309       Ni331   1.961       .  S
O309       Ni325   1.946       .  S
O309        H332   0.966       .  S
C310        O327   1.301       .  A
C310        O319   1.277       .  A
O311       Ni330   1.930       .  S
O311        C317   1.270       .  A
O312       Ni330   1.913       .  S
O312        C314   1.269       .  A
Ni313       O316   1.945       .  S
Ni313       O318   1.941       .  S
C314        O324   1.314       .  A
C314        C683   1.556       .  S
O315       Ni331   1.953       .  S
O315        C321   1.287       .  A
O316        C321   1.277       .  A
O318        C320   1.280       .  A
O319       Ni330   1.911       .  S
C320        O326   1.285       .  A
C321        C341   1.503       .  S
H322        O323   0.966       .  S
O323       Ni331   1.914       .  S
O323       Ni325   1.943       .  S
O323       Ni330   1.910       .  S
O324       Ni325   2.061       .  S
Ni325       O329   2.049       .  S
Ni325       O327   1.985       .  S
O326       Ni331   1.989       .  S
C328        O329   1.314       .  A
C328        C345   1.584       .  S
C333        C664   1.556       .  S
C333        N334   1.388       .  A
C333        N338   1.377       .  A
N334        C335   1.384       .  A
C335        N336   1.338       .  A
N336        C337   1.344       .  A
C337        N338   1.386       .  A
C339        N340   1.359       .  A
C339        N344   1.327       .  A
N340       C1041   1.358       .  A
C341       N1040   1.358       .  A
C341       N1042   1.379       .  A
N342        C343   1.379       .  A
N342       C1041   1.379       .  A
C343        N344   1.324       .  A
C345        N346   1.376       .  A
C345        N350   1.403       .  A
N346        C347   1.383       .  A
C347        N348   1.340       .  A
N348        C349   1.335       .  A
C349        N350   1.399       .  A
O351       Ni357   1.912       .  S
O351        C372   1.265       .  A
O352       Ni375   1.949       .  S
O352        C361   1.275       .  A
O353       Ni357   1.926       .  S
O353       Ni375   1.924       .  S
O353       Ni369   1.960       .  S
O353        H376   0.966       .  S
C354        O371   1.298       .  A
C354        O363   1.281       .  A
C354        C517   1.514       .  S
O355       Ni374   1.911       .  S
O355        C361   1.271       .  A
O356       Ni374   1.939       .  S
O356        C358   1.274       .  A
Ni357       O360   1.926       .  S
Ni357       O362   1.921       .  S
C358        O368   1.306       .  A
C358        C377   1.554       .  S
O359       Ni375   2.004       .  S
O359        C365   1.301       .  A
O360        C365   1.278       .  A
C361        C395   1.492       .  S
O362        C364   1.270       .  A
O363       Ni374   1.929       .  S
C364        O370   1.271       .  A
C364        C404   1.507       .  S
H366        O367   0.966       .  S
O367       Ni375   1.950       .  S
O367       Ni369   1.917       .  S
O367       Ni374   1.898       .  S
O368       Ni369   2.035       .  S
Ni369       O373   1.995       .  S
Ni369       O371   1.987       .  S
O370       Ni375   1.957       .  S
C372        O373   1.294       .  A
C372        C391   1.521       .  S
C377        N378   1.391       .  A
C377        N382   1.372       .  A
N378        C379   1.390       .  A
C379        C452   1.517       .  S
C379        N380   1.351       .  A
N380        C381   1.351       .  A
C381        C472   1.480       .  S
C381        N382   1.377       .  A
C383        N384   1.371       .  A
C383        N388   1.368       .  A
N384        C385   1.372       .  A
C385        C468   1.469       .  S
C385        N386   1.344       .  A
N386        C387   1.346       .  A
C387        C420   1.459       .  S
C387        N388   1.379       .  A
C389        C453   1.454       .  S
C389        N390   1.374       .  A
C389        N394   1.321       .  A
N390       C1091   1.380       .  A
C391       N1090   1.380       .  A
C391       N1092   1.367       .  A
N392       C1091   1.367       .  A
N392        C393   1.375       .  A
C393        C416   1.429       .  S
C393        N394   1.323       .  A
C395        C396   1.410       .  A
C395        C400   1.420       .  A
C396        C397   1.417       .  A
C396        H401   1.078       .  S
C397        C494   1.506       .  S
C397        C398   1.395       .  A
C398        C399   1.415       .  A
C398        H402   1.076       .  S
C399        C625   1.493       .  S
C399        C400   1.415       .  A
C400        H403   1.083       .  S
C404        C405   1.427       .  A
C404        C409   1.414       .  A
C405        C406   1.422       .  A
C405        H410   1.083       .  S
C406        C573   1.502       .  S
C406        C407   1.423       .  A
C407        C408   1.373       .  A
C407        H411   1.072       .  S
C408        C512   1.499       .  S
C408        C409   1.410       .  A
C409        H412   1.084       .  S
O413       Ni419   1.880       .  S
O413        C434   1.249       .  A
O414       Ni437   1.896       .  S
O414        C423   1.273       .  A
O415       Ni419   1.876       .  S
O415       Ni437   1.887       .  S
O415       Ni431   1.885       .  S
O415        H438   0.966       .  S
C416        O433   1.254       .  A
C416        O425   1.259       .  A
O417       Ni436   1.882       .  S
O417        C423   1.259       .  A
O418       Ni436   1.868       .  S
O418        C420   1.260       .  A
Ni419       O424   1.876       .  S
C420        O430   1.295       .  A
O421        C427   1.271       .  A
O422        C427   1.279       .  A
C423        C501   1.438       .  S
O424       C1126   1.253       .  A
O425       Ni436   1.853       .  S
C426       O1124   1.253       .  A
C426       O1132   1.271       .  A
C426        C479   1.452   1_655  S
C427        C442   1.434       .  S
H428        O429   0.966       .  S
O429       Ni437   1.886       .  S
O429       Ni431   1.954       .  S
O429       Ni436   1.909       .  S
O430       Ni431   1.979       .  S
Ni431       O435   1.991       .  S
Ni431       O433   1.885       .  S
O432       Ni437   1.928       .  S
O432       C1126   1.271       .  A
C434        O435   1.273       .  A
C434        C650   1.505       .  S
O439       Ni445   1.860       .  S
O439        C460   1.253       .  A
O440       Ni463   1.994       .  S
O440        C449   1.282       .  A
O441       Ni445   1.904       .  S
O441       Ni463   1.932       .  S
O441       Ni457   1.928       .  S
O441        H464   0.966       .  S
C442        O459   1.286       .  A
C442        O451   1.284       .  A
O443       Ni462   1.894       .  S
O443        C449   1.256       .  A
O444       Ni462   1.897       .  S
O444       C1146   1.256       .  A
Ni445       O448   1.858       .  S
Ni445       O450   1.941       .  S
C446       O1144   1.256   1_455  A
C446       O1156   1.263   1_455  A
C446        C478   1.479       .  S
O447       Ni463   1.890       .  S
O447        C453   1.260       .  A
O448        C453   1.260       .  A
C449        C643   1.515       .  S
O450        C452   1.283       .  A
O451       Ni462   1.903       .  S
C452        O458   1.308       .  A
H454        O455   0.967       .  S
O455       Ni463   1.855       .  S
O455       Ni457   1.860       .  S
O455       Ni462   1.842       .  S
O456       Ni457   1.943       .  S
O456       C1146   1.263       .  A
Ni457       O461   1.884       .  S
Ni457       O459   1.905       .  S
O458       Ni463   2.005       .  S
C460        O461   1.265       .  A
C460        C504   1.409       .  S
O465       Ni471   1.910       .  S
O465        C486   1.267       .  A
O466       Ni489   1.876       .  S
O466        C475   1.248       .  A
O467       Ni471   1.897       .  S
O467       Ni489   1.853       .  S
O467       Ni483   1.920       .  S
O467        H490   0.966       .  S
C468        O485   1.298       .  A
C468        O477   1.274       .  A
O469       Ni488   1.861       .  S
O469        C475   1.251       .  A
O470       Ni488   1.896       .  S
O470        C472   1.264       .  A
Ni471       O474   1.952       .  S
Ni471       O476   1.903       .  S
C472        O482   1.280       .  A
O473       Ni489   1.875       .  S
O473        C479   1.271       .  A
O474        C479   1.285       .  A
C475        C505   1.417       .  S
O477       Ni488   1.894       .  S
H480        O481   0.966       .  S
O481       Ni489   1.947       .  S
O481       Ni483   1.887       .  S
O481       Ni488   1.890       .  S
O482       Ni483   1.966       .  S
Ni483       O487   1.960       .  S
Ni483       O485   1.966       .  S
O484       Ni489   1.966       .  S
C486        O487   1.279       .  A
C486        C634   1.492       .  S
O491       Ni497   1.879       .  S
O491        C512   1.260       .  A
O492      Ni1215   1.841       .  S
O492        C501   1.246       .  A
O493       Ni515   1.869   1_455  S
O493       Ni859   1.887       .  S
O493        H516   0.963       .  S
C494        O511   1.284       .  A
C494        O503   1.276   1_565  A
O495       Ni514   1.948       .  S
O495        C501   1.279       .  A
O496       Ni514   1.906       .  S
O496       C1198   1.267       .  A
Ni497       O502   1.921       .  S
C498       O1196   1.267   1_455  A
C498        O508   1.306       .  A
C498        C519   1.507       .  S
O499       Ni515   1.864   1_455  S
O499        C505   1.259       .  A
O500        C505   1.274       .  A
O502       C1204   1.268   1_455  A
C504       O1202   1.268       .  A
C504        O510   1.236       .  A
H506        O507   0.964       .  S
O507       Ni865   1.823   1_565  S
O507       Ni509   1.915       .  S
O508       Ni859   2.009       .  S
Ni509       O858   2.009   1_565  S
Ni509      O1213   1.987       .  S
Ni509       O511   1.954       .  S
Ni509       O843   1.887   1_565  S
O510       Ni865   1.851   1_565  S
C512        O513   1.304       .  A
O513      Ni1209   1.987       .  S
Ni515      O1192   1.841       .  S
Ni515       O860   1.851       .  S
Ni515       O857   1.823       .  S
C517        C518   1.426       .  A
C517        C522   1.435       .  A
C518        C519   1.426       .  A
C518        H523   1.083       .  S
C519        C520   1.380       .  A
C520        C521   1.412       .  A
C520        H524   1.062       .  S
C521        C588   1.516       .  S
C521        C522   1.414       .  A
C522        H525   1.083       .  S
O526       Ni532   1.885       .  S
O526        C547   1.263       .  A
O527      Ni1250   1.993   1_554  S
O527        C536   1.300   1_554  A
O528       Ni532   1.895       .  S
O528       Ni544   1.916   1_455  S
O528        H551   0.966       .  S
C529        O546   1.281       .  A
C529        O538   1.271       .  A
C529        C614   1.369       .  S
O530       Ni549   1.850       .  S
O530        C536   1.247       .  A
O531      Ni1249   1.876       .  S
O531        C533   1.256   1_655  A
Ni532       O535   1.860       .  S
Ni532       O537   1.917       .  S
C533        O543   1.252       .  A
C533        C562   1.434       .  S
O534        C540   1.268       .  A
O535        C540   1.256   1_556  A
C536        C641   1.514       .  S
O537        C539   1.280   1_455  A
O538       Ni549   1.857       .  S
C539       O1245   1.323       .  A
C539       C1352   1.523       .  S
C540        C632   1.480       .  S
H541        O542   0.967       .  S
O542      Ni1250   1.860       .  S
O542       Ni894   1.843   1_565  S
O542       Ni549   1.866       .  S
Ni544       O548   1.875   1_655  S
Ni544       O896   1.867       .  S
Ni544       O892   1.843       .  S
O545       Ni900   2.035       .  S
O545       C1239   1.323       .  A
O546       Ni894   1.867   1_565  S
C547        O548   1.262       .  A
C547        C599   1.429       .  S
Ni549      O1231   1.876       .  S
Ni550      O1227   1.993   1_456  S
Ni550       O895   2.035   1_465  S
Ni550      O1242   1.860   1_455  S
O552       Ni558   1.888       .  S
O552        C573   1.258       .  A
O553       Ni576   1.925       .  S
O553        C562   1.277       .  A
O554       Ni558   1.849       .  S
O554       Ni576   1.851       .  S
O554       Ni570   1.856       .  S
O554        H577   0.966       .  S
C555        O572   1.258       .  A
C555        O564   1.251       .  A
C555        C693   1.444       .  S
O556       Ni575   1.859       .  S
O556        C562   1.255       .  A
O557       Ni575   1.904       .  S
O557        C559   1.267       .  A
Ni558       O563   1.879       .  S
C559        O569   1.305       .  A
C559        C687   1.471       .  S
O560        C566   1.284       .  A
O561        C566   1.276       .  A
O563       C1265   1.253   1_455  A
O564       Ni575   1.848       .  S
C565       O1263   1.253       .  A
C565       O1271   1.273       .  A
C565        C618   1.457       .  S
C566        C581   1.391       .  S
H567        O568   0.967       .  S
O568       Ni576   1.905       .  S
O568       Ni570   1.955       .  S
O568       Ni575   1.907       .  S
O569       Ni570   1.999       .  S
Ni570       O574   1.975       .  S
Ni570       O572   1.895       .  S
O571       Ni576   1.930       .  S
O571       C1265   1.273   1_455  A
C573        O574   1.283       .  A
O578       Ni584   1.862       .  S
O578        C599   1.243       .  A
O579       Ni602   1.992       .  S
O579        C588   1.287       .  A
O580       Ni584   1.883       .  S
O580       Ni602   1.907       .  S
O580       Ni596   1.892       .  S
O580        H603   0.966       .  S
C581        O598   1.267       .  A
C581        O590   1.286       .  A
O582       Ni601   1.891       .  S
O582        C588   1.260       .  A
O583       Ni601   1.893   1_655  S
O583       C1285   1.254       .  A
Ni584       O587   1.863       .  S
Ni584       O589   1.881       .  S
C585       O1283   1.254       .  A
C585       O1295   1.262       .  A
C585        C617   1.463       .  S
O586       Ni602   1.925       .  S
O586        C592   1.294       .  A
O587        C592   1.267       .  A
O589        C591   1.261       .  A
O590       Ni601   1.930       .  S
C591        O597   1.275       .  A
C591        C697   1.460       .  S
C592        C689   1.416       .  S
H593        O594   0.967       .  S
O594       Ni602   1.867       .  S
O594       Ni596   1.859       .  S
O594       Ni601   1.854       .  S
O595       Ni596   1.940       .  S
O595       C1285   1.262   1_455  A
Ni596       O600   1.894       .  S
Ni596       O598   1.830       .  S
O597       Ni602   1.949       .  S
C599        O600   1.253       .  A
O604       Ni610   1.903       .  S
O604        C625   1.262       .  A
O605       Ni628   1.819       .  S
O605        C614   1.244       .  A
O606       Ni610   1.866       .  S
O606       Ni628   1.845       .  S
O606       Ni622   1.909       .  S
O606        H629   0.967       .  S
C607        O624   1.303       .  A
C607        O616   1.274       .  A
C607        C685   1.501       .  S
O608       Ni627   1.875       .  S
O608        C614   1.245       .  A
O609       Ni627   1.911       .  S
O609        C611   1.270       .  A
Ni610       O613   1.971       .  S
Ni610       O615   1.884       .  S
C611        O621   1.283       .  A
C611        C699   1.519       .  S
O612       Ni628   1.874       .  S
O612        C618   1.268       .  A
O613        C618   1.296       .  A
O616       Ni627   1.918       .  S
H619        O620   0.966       .  S
O620       Ni628   1.912       .  S
O620       Ni622   1.893       .  S
O620       Ni627   1.910       .  S
O621       Ni622   1.976       .  S
Ni622       O626   1.970       .  S
Ni622       O624   1.976       .  S
O623       Ni628   1.942       .  S
C625        O626   1.282       .  A
C630        C660   1.510       .  S
C630        C631   1.416       .  A
C630        C635   1.433   1_556  A
C631        C632   1.422   1_556  A
C631        H636   1.082       .  S
C632        C633   1.382       .  A
C633        C634   1.396       .  A
C633        H637   1.073       .  S
C634        C635   1.409       .  A
C635        H638   1.083       .  S
C639        C670   1.539       .  S
C639        C640   1.422       .  A
C639        C644   1.439   1_556  A
C640        C641   1.421       .  A
C640        H645   1.082       .  S
C641        C642   1.368   1_556  A
C642        C643   1.423       .  A
C642        H646   1.069       .  S
C643        C644   1.437       .  A
C644        H647   1.082       .  S
C648        C667   1.528       .  S
C648        C649   1.431   1_556  A
C648        C653   1.437       .  A
C649        C650   1.420       .  A
C649        H654   1.083       .  S
C650        C651   1.412       .  A
C651        C652   1.380   1_554  A
C651        H655   1.084       .  S
C652       C1239   1.523       .  S
C652        C653   1.434       .  A
C653        H656   1.083       .  S
O657       Ni663   1.959       .  S
O657        C678   1.279       .  A
O658       Ni681   1.994       .  S
O658        C667   1.288       .  A
O659       Ni663   1.943       .  S
O659       Ni681   1.961       .  S
O659       Ni675   1.946       .  S
O659        H682   0.966       .  S
C660        O677   1.301       .  A
C660        O669   1.277       .  A
O661       Ni680   1.930       .  S
O661        C667   1.270       .  A
O662       Ni680   1.913       .  S
O662        C664   1.269       .  A
Ni663       O666   1.945       .  S
Ni663       O668   1.941       .  S
C664        O674   1.314       .  A
O665       Ni681   1.953       .  S
O665        C671   1.287       .  A
O666        C671   1.277       .  A
O668        C670   1.280       .  A
O669       Ni680   1.911       .  S
C670        O676   1.285       .  A
C671        C691   1.503       .  S
H672        O673   0.966       .  S
O673       Ni681   1.914       .  S
O673       Ni675   1.943       .  S
O673       Ni680   1.910       .  S
O674       Ni675   2.061       .  S
Ni675       O679   2.049       .  S
Ni675       O677   1.985       .  S
O676       Ni681   1.989       .  S
C678        O679   1.314       .  A
C678        C695   1.584       .  S
C683        N684   1.388       .  A
C683        N688   1.377       .  A
N684        C685   1.384   1_545  A
C685        N686   1.338       .  A
N686        C687   1.344       .  A
C687        N688   1.386   1_565  A
C689        N690   1.359       .  A
C689        N694   1.327       .  A
N690       C1391   1.358       .  A
C691       N1390   1.358       .  A
C691       N1392   1.379       .  A
N692       C1391   1.379       .  A
N692        C693   1.379       .  A
C693        N694   1.324       .  A
C695        N696   1.376       .  A
C695        N700   1.403       .  A
N696        C697   1.383       .  A
C697        N698   1.340       .  A
N698        C699   1.335       .  A
C699        N700   1.399       .  A
O701       Ni707   1.912       .  S
O701        C722   1.265       .  A
O702       Ni725   1.949       .  S
O702        C711   1.275       .  A
O703       Ni707   1.926       .  S
O703       Ni725   1.924       .  S
O703       Ni719   1.960       .  S
O703        H726   0.966       .  S
C704        O721   1.298       .  A
C704        O713   1.281       .  A
C704        C867   1.514       .  S
O705       Ni724   1.911       .  S
O705        C711   1.270       .  A
O706       Ni724   1.939       .  S
O706        C708   1.274       .  A
Ni707       O710   1.926       .  S
Ni707       O712   1.921       .  S
C708        O718   1.306       .  A
C708        C727   1.554       .  S
O709       Ni725   2.004       .  S
O709        C715   1.301       .  A
O710        C715   1.278       .  A
C711        C745   1.492       .  S
O712        C714   1.270       .  A
O713       Ni724   1.929       .  S
C714        O720   1.271       .  A
C714        C754   1.507       .  S
C715       C1083   1.522       .  S
H716        O717   0.966       .  S
O717       Ni725   1.950       .  S
O717       Ni719   1.917       .  S
O717       Ni724   1.898       .  S
O718       Ni719   2.035       .  S
Ni719       O723   1.995       .  S
Ni719       O721   1.987       .  S
O720       Ni725   1.957       .  S
C722        O723   1.294       .  A
C722        C741   1.521       .  S
C727        N728   1.391       .  A
C727        N732   1.372       .  A
N728        C729   1.390       .  A
C729        C802   1.517       .  S
C729        N730   1.351       .  A
N730        C731   1.351       .  A
C731        C822   1.480       .  S
C731        N732   1.377       .  A
C733       C1065   1.522       .  S
C733        N734   1.371       .  A
C733        N738   1.368   1_565  A
N734        C735   1.372   1_565  A
C735        C818   1.469       .  S
C735        N736   1.344       .  A
N736        C737   1.346       .  A
C737        C770   1.459       .  S
C737        N738   1.379       .  A
C739        C803   1.454       .  S
C739        N740   1.374   1_655  A
C739        N744   1.321       .  A
N742        C743   1.375   1_455  A
C743        C766   1.429       .  S
C743        N744   1.323       .  A
C745        C746   1.410       .  A
C745        C750   1.420       .  A
C746        C747   1.417       .  A
C746        H751   1.078       .  S
C747        C844   1.506       .  S
C747        C748   1.395       .  A
C748        C749   1.415       .  A
C748        H752   1.076       .  S
C749        C975   1.493       .  S
C749        C750   1.415       .  A
C750        H753   1.083       .  S
C754        C755   1.427       .  A
C754        C759   1.414       .  A
C755        C756   1.422       .  A
C755        H760   1.083       .  S
C756        C923   1.502       .  S
C756        C757   1.423       .  A
C757        C758   1.373       .  A
C757        H761   1.072       .  S
C758        C862   1.499       .  S
C758        C759   1.410       .  A
C759        H762   1.084       .  S
O763       Ni769   1.880       .  S
O763        C784   1.249       .  A
O764       Ni787   1.896       .  S
O764        C773   1.273       .  A
O765       Ni769   1.876       .  S
O765       Ni787   1.887       .  S
O765       Ni781   1.885       .  S
O765        H788   0.966       .  S
C766        O783   1.254       .  A
C766        O775   1.259       .  A
O767       Ni786   1.882       .  S
O767        C773   1.259       .  A
O768       Ni786   1.868       .  S
O768        C770   1.260       .  A
Ni769      O1122   1.899   1_545  S
Ni769       O774   1.876       .  S
C770        O780   1.295       .  A
O771      Ni1137   1.889       .  S
O771        C777   1.271       .  A
O772      Ni1119   1.899       .  S
O772        C777   1.279       .  A
C773        C851   1.438       .  S
O775       Ni786   1.853       .  S
C776        C829   1.452       .  S
C777        C792   1.434       .  S
H778        O779   0.966       .  S
O779       Ni787   1.886       .  S
O779       Ni781   1.954       .  S
O779       Ni786   1.909       .  S
O780       Ni781   1.979       .  S
Ni781       O785   1.991       .  S
Ni781       O783   1.885       .  S
O782       Ni787   1.928       .  S
C784        O785   1.273       .  A
C784       C1000   1.505       .  S
Ni787      O1121   1.889   1_545  S
O789       Ni795   1.860       .  S
O789        C810   1.253       .  A
O790       Ni813   1.995       .  S
O790        C799   1.282       .  A
O791       Ni795   1.904       .  S
O791       Ni813   1.932       .  S
O791       Ni807   1.928       .  S
O791        H814   0.966       .  S
C792        O809   1.286       .  A
C792        O801   1.284       .  A
O793       Ni812   1.894       .  S
O793        C799   1.256       .  A
O794       Ni812   1.897       .  S
Ni795       O798   1.858       .  S
Ni795       O800   1.941       .  S
C796        C828   1.479       .  S
O797       Ni813   1.890       .  S
O797        C803   1.260       .  A
O798        C803   1.260       .  A
C799        C993   1.515       .  S
O800        C802   1.283       .  A
O801       Ni812   1.903       .  S
C802        O808   1.308       .  A
H804        O805   0.967       .  S
O805       Ni813   1.855       .  S
O805       Ni807   1.860       .  S
O805       Ni812   1.842       .  S
O806       Ni807   1.943       .  S
Ni807       O811   1.884       .  S
Ni807       O809   1.905       .  S
O808       Ni813   2.005       .  S
C810        O811   1.265       .  A
C810        C854   1.409       .  S
O815       Ni821   1.910       .  S
O815        C836   1.267       .  A
O816       Ni839   1.876       .  S
O816        C825   1.248       .  A
O817       Ni821   1.897       .  S
O817       Ni839   1.853       .  S
O817       Ni833   1.920       .  S
O817        H840   0.966       .  S
C818        O835   1.298       .  A
C818        O827   1.274       .  A
O819       Ni838   1.861       .  S
O819        C825   1.251       .  A
O820       Ni838   1.896       .  S
O820        C822   1.264       .  A
Ni821       O824   1.952       .  S
Ni821       O826   1.903   1_545  S
C822        O832   1.280       .  A
O823       Ni839   1.875       .  S
O823        C829   1.271       .  A
O824        C829   1.285       .  A
C825        C855   1.417       .  S
O826       C1178   1.266       .  A
O827       Ni838   1.894       .  S
C828       O1176   1.266       .  A
C828       O1184   1.276       .  A
H830        O831   0.966       .  S
O831       Ni839   1.947       .  S
O831       Ni833   1.887       .  S
O831       Ni838   1.890       .  S
O832       Ni833   1.966       .  S
Ni833       O837   1.960       .  S
Ni833       O835   1.966       .  S
O834       Ni839   1.966       .  S
O834       C1178   1.276   1_545  A
C836        O837   1.279       .  A
C836        C984   1.492       .  S
O841       Ni847   1.879       .  S
O841        C862   1.260       .  A
O842        C851   1.246   1_565  A
O843      Ni1197   1.871   1_545  S
O843       Ni865   1.869       .  S
O843        H866   0.963       .  S
C844        O861   1.284       .  A
C844        O853   1.276       .  A
O845       Ni864   1.947       .  S
O845        C851   1.279       .  A
O846       Ni864   1.906       .  S
Ni847      O1200   1.904       .  S
Ni847       O852   1.921       .  S
Ni847      O1193   1.871       .  S
C848        O858   1.306       .  A
C848        C869   1.507       .  S
O849       Ni865   1.864       .  S
O849        C855   1.259       .  A
O850      Ni1197   1.904   1_545  S
O850        C855   1.274       .  A
O853      Ni1214   1.907       .  S
C854        O860   1.236       .  A
H856        O857   0.964       .  S
O857       Ni859   1.915   1_655  S
O857      Ni1214   1.876       .  S
Ni859       O861   1.954   1_455  S
C862        O863   1.304       .  A
Ni864      O1203   1.907       .  S
Ni864      O1207   1.876   1_545  S
C867        C868   1.426       .  A
C867        C872   1.435       .  A
C868        C869   1.426       .  A
C868        H873   1.083       .  S
C869        C870   1.380       .  A
C870        C871   1.412       .  A
C870        H874   1.062       .  S
C871        C938   1.516       .  S
C871        C872   1.414       .  A
C872        H875   1.083       .  S
O876       Ni882   1.885       .  S
O876        C897   1.263       .  A
O877        C886   1.300   1_554  A
O878       Ni882   1.895       .  S
O878      Ni1250   1.925   1_545  S
O878       Ni894   1.916       .  S
O878        H901   0.966       .  S
C879        O896   1.281       .  A
C879        O888   1.271       .  A
C879        C964   1.369       .  S
O880       Ni899   1.850       .  S
O880        C886   1.247       .  A
O881        C883   1.256       .  A
Ni882       O885   1.860       .  S
Ni882       O887   1.917       .  S
C883        O893   1.252       .  A
C883        C912   1.434       .  S
O884      Ni1250   1.927   1_544  S
O884        C890   1.268       .  A
O885        C890   1.256   1_556  A
C886        C991   1.514       .  S
O887        C889   1.280       .  A
O888       Ni899   1.857       .  S
C890        C982   1.480       .  S
H891        O892   0.967       .  S
O892       Ni899   1.866       .  S
O893      Ni1244   1.892       .  S
Ni894      O1243   1.892   1_545  S
Ni894       O898   1.875       .  S
C897        O898   1.262       .  A
C897        C949   1.429       .  S
Ni900      O1234   1.927   1_556  S
Ni900      O1228   1.925       .  S
O902       Ni908   1.888       .  S
O902        C923   1.258       .  A
O903       Ni926   1.925       .  S
O903        C912   1.277       .  A
O904       Ni908   1.849       .  S
O904       Ni926   1.851       .  S
O904       Ni920   1.856       .  S
O904        H927   0.966       .  S
C905        O922   1.258       .  A
C905        O914   1.251       .  A
C905       C1043   1.444       .  S
O906       Ni925   1.859       .  S
O906        C912   1.255       .  A
O907       Ni925   1.904       .  S
O907        C909   1.267       .  A
Ni908      O1261   1.879       .  S
Ni908       O913   1.879       .  S
C909        O919   1.304       .  A
C909       C1037   1.471       .  S
O910      Ni1276   1.870       .  S
O910        C916   1.284   1_565  A
O911      Ni1258   1.879       .  S
O911        C916   1.276   1_565  A
O914       Ni925   1.848       .  S
C915        C968   1.457       .  S
C916        C931   1.391       .  S
H917        O918   0.967       .  S
O918       Ni926   1.905       .  S
O918       Ni920   1.955       .  S
O918       Ni925   1.907       .  S
O919       Ni920   1.999       .  S
Ni920       O924   1.975       .  S
Ni920       O922   1.895       .  S
O921       Ni926   1.930       .  S
C923        O924   1.283       .  A
Ni926      O1260   1.870       .  S
O928       Ni934   1.862       .  S
O928        C949   1.243       .  A
O929       Ni952   1.992       .  S
O929        C938   1.287       .  A
O930       Ni934   1.883       .  S
O930       Ni952   1.907       .  S
O930       Ni946   1.892       .  S
O930        H953   0.966       .  S
C931        O948   1.267       .  A
C931        O940   1.286       .  A
O932       Ni951   1.891       .  S
O932        C938   1.260       .  A
O933       Ni951   1.893       .  S
Ni934       O937   1.863       .  S
Ni934       O939   1.881       .  S
C935        C967   1.463       .  S
O936       Ni952   1.925       .  S
O936        C942   1.294       .  A
O937        C942   1.267       .  A
O939        C941   1.261       .  A
O940       Ni951   1.930       .  S
C941        O947   1.275       .  A
C941       C1047   1.460       .  S
C942       C1039   1.416       .  S
H943        O944   0.967       .  S
O944       Ni952   1.867       .  S
O944       Ni946   1.859       .  S
O944       Ni951   1.854       .  S
O945       Ni946   1.940       .  S
Ni946       O950   1.894       .  S
Ni946       O948   1.830       .  S
O947       Ni952   1.949       .  S
C949        O950   1.253       .  A
O954       Ni960   1.903       .  S
O954        C975   1.262       .  A
O955       Ni978   1.819       .  S
O955        C964   1.244       .  A
O956       Ni960   1.866       .  S
O956       Ni978   1.845       .  S
O956       Ni972   1.909       .  S
O956        H979   0.967       .  S
C957        O974   1.303       .  A
C957        O966   1.274       .  A
C957       C1035   1.501       .  S
O958       Ni977   1.875       .  S
O958        C964   1.245       .  A
O959       Ni977   1.911       .  S
O959        C961   1.270       .  A
Ni960       O963   1.971       .  S
Ni960       O965   1.884       .  S
C961        O971   1.283       .  A
C961       C1049   1.519       .  S
O962       Ni978   1.874       .  S
O962        C968   1.268       .  A
O963        C968   1.296       .  A
O965       C1317   1.251       .  A
O966       Ni977   1.918       .  S
C967       O1315   1.251   1_545  A
C967       O1323   1.264   1_545  A
H969        O970   0.966       .  S
O970       Ni978   1.912       .  S
O970       Ni972   1.893       .  S
O970       Ni977   1.910       .  S
O971       Ni972   1.976       .  S
Ni972       O976   1.970       .  S
Ni972       O974   1.977       .  S
O973       Ni978   1.943       .  S
O973       C1317   1.264       .  A
C975        O976   1.282       .  A
C980       C1010   1.510       .  S
C980        C981   1.416       .  A
C980        C985   1.433   1_556  A
C981        C982   1.422   1_556  A
C981        H986   1.082       .  S
C982        C983   1.382       .  A
C983        C984   1.396       .  A
C983        H987   1.073       .  S
C984        C985   1.409       .  A
C985        H988   1.083       .  S
C989       C1020   1.539       .  S
C989        C990   1.422       .  A
C989        C994   1.439   1_556  A
C990        C991   1.421       .  A
C990        H995   1.082       .  S
C991        C992   1.368   1_556  A
C992        C993   1.423       .  A
C992        H996   1.069       .  S
C993        C994   1.437       .  A
C994        H997   1.082       .  S
C998       C1017   1.528       .  S
C998        C999   1.431   1_556  A
C998       C1003   1.437       .  A
C999       C1000   1.420       .  A
C999       H1004   1.083       .  S
C1000      C1001   1.412       .  A
C1001      C1002   1.380   1_554  A
C1001      H1005   1.084       .  S
C1002      C1003   1.434       .  A
C1003      H1006   1.083       .  S
O1007     Ni1013   1.959       .  S
O1007      C1028   1.279       .  A
O1008     Ni1031   1.994       .  S
O1008      C1017   1.288       .  A
O1009     Ni1013   1.943       .  S
O1009     Ni1031   1.961       .  S
O1009     Ni1025   1.946       .  S
O1009      H1032   0.966       .  S
C1010      O1027   1.301       .  A
C1010      O1019   1.277       .  A
O1011     Ni1030   1.930       .  S
O1011      C1017   1.270       .  A
O1012     Ni1030   1.913       .  S
O1012      C1014   1.269       .  A
Ni1013     O1016   1.945       .  S
Ni1013     O1018   1.941       .  S
C1014      O1024   1.314       .  A
C1014      C1383   1.556       .  S
O1015     Ni1031   1.953       .  S
O1015      C1021   1.287       .  A
O1016      C1021   1.277       .  A
O1018      C1020   1.280       .  A
O1019     Ni1030   1.911       .  S
C1020      O1026   1.285       .  A
C1021      C1041   1.503   1_655  S
H1022      O1023   0.966       .  S
O1023     Ni1031   1.914       .  S
O1023     Ni1025   1.943       .  S
O1023     Ni1030   1.910       .  S
O1024     Ni1025   2.061       .  S
Ni1025     O1029   2.049       .  S
Ni1025     O1027   1.985       .  S
O1026     Ni1031   1.989       .  S
C1028      O1029   1.314       .  A
C1028      C1045   1.584       .  S
C1033      C1364   1.556       .  S
C1033      N1034   1.388       .  A
C1033      N1038   1.377       .  A
N1034      C1035   1.384       .  A
C1035      N1036   1.338       .  A
N1036      C1037   1.344       .  A
C1037      N1038   1.386       .  A
C1039      N1040   1.359       .  A
C1039      N1044   1.327       .  A
N1042      C1043   1.379       .  A
C1043      N1044   1.324       .  A
C1045      N1046   1.376       .  A
C1045      N1050   1.403       .  A
N1046      C1047   1.383       .  A
C1047      N1048   1.340       .  A
N1048      C1049   1.335       .  A
C1049      N1050   1.399       .  A
O1051     Ni1057   1.912       .  S
O1051      C1072   1.265       .  A
O1052     Ni1075   1.949       .  S
O1052      C1061   1.275       .  A
O1053     Ni1057   1.926       .  S
O1053     Ni1075   1.924       .  S
O1053     Ni1069   1.960       .  S
O1053      H1076   0.966       .  S
C1054      O1071   1.298       .  A
C1054      O1063   1.281       .  A
C1054      C1217   1.514       .  S
O1055     Ni1074   1.911       .  S
O1055      C1061   1.270       .  A
O1056     Ni1074   1.939       .  S
O1056      C1058   1.274       .  A
Ni1057     O1060   1.926       .  S
Ni1057     O1062   1.921       .  S
C1058      O1068   1.306       .  A
C1058      C1077   1.554       .  S
O1059     Ni1075   2.004       .  S
O1059      C1065   1.301       .  A
O1060      C1065   1.278       .  A
C1061      C1095   1.492       .  S
O1062      C1064   1.270       .  A
O1063     Ni1074   1.929       .  S
C1064      O1070   1.271       .  A
C1064      C1104   1.507       .  S
H1066      O1067   0.966       .  S
O1067     Ni1075   1.950       .  S
O1067     Ni1069   1.917       .  S
O1067     Ni1074   1.898       .  S
O1068     Ni1069   2.035       .  S
Ni1069     O1073   1.995       .  S
Ni1069     O1071   1.987       .  S
O1070     Ni1075   1.957       .  S
C1072      O1073   1.294       .  A
C1072      C1091   1.521       .  S
C1077      N1078   1.391       .  A
C1077      N1082   1.372       .  A
N1078      C1079   1.390       .  A
C1079      C1152   1.517       .  S
C1079      N1080   1.351       .  A
N1080      C1081   1.351       .  A
C1081      C1172   1.480       .  S
C1081      N1082   1.377       .  A
C1083      N1084   1.371       .  A
C1083      N1088   1.368       .  A
N1084      C1085   1.372       .  A
C1085      C1168   1.469       .  S
C1085      N1086   1.344       .  A
N1086      C1087   1.346       .  A
C1087      C1120   1.459       .  S
C1087      N1088   1.379       .  A
C1089      C1153   1.454       .  S
C1089      N1090   1.374   1_655  A
C1089      N1094   1.321       .  A
N1092      C1093   1.375   1_455  A
C1093      C1116   1.429       .  S
C1093      N1094   1.323       .  A
C1095      C1096   1.410       .  A
C1095      C1100   1.420       .  A
C1096      C1097   1.417       .  A
C1096      H1101   1.078       .  S
C1097      C1194   1.506       .  S
C1097      C1098   1.395       .  A
C1098      C1099   1.415       .  A
C1098      H1102   1.076       .  S
C1099      C1325   1.493       .  S
C1099      C1100   1.415       .  A
C1100      H1103   1.083       .  S
C1104      C1105   1.427       .  A
C1104      C1109   1.414       .  A
C1105      C1106   1.422       .  A
C1105      H1110   1.083       .  S
C1106      C1273   1.502       .  S
C1106      C1107   1.423       .  A
C1107      C1108   1.373       .  A
C1107      H1111   1.072       .  S
C1108      C1212   1.499       .  S
C1108      C1109   1.410       .  A
C1109      H1112   1.084       .  S
O1113     Ni1119   1.880       .  S
O1113      C1134   1.249       .  A
O1114     Ni1137   1.896       .  S
O1114      C1123   1.273       .  A
O1115     Ni1119   1.876       .  S
O1115     Ni1137   1.887       .  S
O1115     Ni1131   1.885       .  S
O1115      H1138   0.966       .  S
C1116      O1133   1.254       .  A
C1116      O1125   1.259       .  A
O1117     Ni1136   1.882       .  S
O1117      C1123   1.259       .  A
O1118     Ni1136   1.868       .  S
O1118      C1120   1.260       .  A
Ni1119     O1124   1.876       .  S
C1120      O1130   1.295       .  A
O1121      C1127   1.271       .  A
O1122      C1127   1.279       .  A
C1123      C1201   1.438       .  S
O1125     Ni1136   1.853       .  S
C1126      C1179   1.452       .  S
C1127      C1142   1.434       .  S
H1128      O1129   0.966       .  S
O1129     Ni1137   1.886       .  S
O1129     Ni1131   1.954       .  S
O1129     Ni1136   1.909       .  S
O1130     Ni1131   1.979       .  S
Ni1131     O1135   1.991       .  S
Ni1131     O1133   1.885       .  S
O1132     Ni1137   1.928       .  S
C1134      O1135   1.273       .  A
C1134      C1350   1.505       .  S
O1139     Ni1145   1.860       .  S
O1139      C1160   1.253       .  A
O1140     Ni1163   1.995       .  S
O1140      C1149   1.282       .  A
O1141     Ni1145   1.904       .  S
O1141     Ni1163   1.932       .  S
O1141     Ni1157   1.928       .  S
O1141      H1164   0.966       .  S
C1142      O1159   1.286       .  A
C1142      O1151   1.284       .  A
O1143     Ni1162   1.894       .  S
O1143      C1149   1.256       .  A
O1144     Ni1162   1.897       .  S
Ni1145     O1148   1.858       .  S
Ni1145     O1150   1.941       .  S
C1146      C1178   1.479       .  S
O1147     Ni1163   1.890       .  S
O1147      C1153   1.260       .  A
O1148      C1153   1.260       .  A
C1149      C1343   1.515       .  S
O1150      C1152   1.283       .  A
O1151     Ni1162   1.903       .  S
C1152      O1158   1.308       .  A
H1154      O1155   0.967       .  S
O1155     Ni1163   1.855       .  S
O1155     Ni1157   1.860       .  S
O1155     Ni1162   1.842       .  S
O1156     Ni1157   1.943       .  S
Ni1157     O1161   1.884       .  S
Ni1157     O1159   1.905       .  S
O1158     Ni1163   2.005       .  S
C1160      O1161   1.265       .  A
C1160      C1204   1.409       .  S
O1165     Ni1171   1.910       .  S
O1165      C1186   1.267       .  A
O1166     Ni1189   1.876       .  S
O1166      C1175   1.248       .  A
O1167     Ni1171   1.897       .  S
O1167     Ni1189   1.853       .  S
O1167     Ni1183   1.920       .  S
O1167      H1190   0.966       .  S
C1168      O1185   1.298       .  A
C1168      O1177   1.274       .  A
O1169     Ni1188   1.861       .  S
O1169      C1175   1.251       .  A
O1170     Ni1188   1.896       .  S
O1170      C1172   1.264       .  A
Ni1171     O1174   1.952       .  S
Ni1171     O1176   1.903       .  S
C1172      O1182   1.280       .  A
O1173     Ni1189   1.875       .  S
O1173      C1179   1.271       .  A
O1174      C1179   1.285       .  A
C1175      C1205   1.417       .  S
O1177     Ni1188   1.894       .  S
H1180      O1181   0.966       .  S
O1181     Ni1189   1.947       .  S
O1181     Ni1183   1.887       .  S
O1181     Ni1188   1.890       .  S
O1182     Ni1183   1.966       .  S
Ni1183     O1187   1.960       .  S
Ni1183     O1185   1.966       .  S
O1184     Ni1189   1.966       .  S
C1186      O1187   1.279       .  A
C1186      C1334   1.492       .  S
O1191     Ni1197   1.879       .  S
O1191      C1212   1.260       .  A
O1192      C1201   1.246       .  A
O1193     Ni1215   1.869       .  S
O1193      H1216   0.963       .  S
C1194      O1211   1.284       .  A
C1194      O1203   1.276   1_565  A
O1195     Ni1214   1.947       .  S
O1195      C1201   1.279       .  A
O1196     Ni1214   1.906       .  S
Ni1197     O1202   1.921       .  S
C1198      O1208   1.306       .  A
C1198      C1219   1.507       .  S
O1199     Ni1215   1.864       .  S
O1199      C1205   1.259       .  A
O1200      C1205   1.274       .  A
C1204      O1210   1.236       .  A
H1206      O1207   0.964       .  S
O1207     Ni1209   1.915   1_655  S
Ni1209     O1211   1.954   1_455  S
C1212      O1213   1.304       .  A
C1217      C1218   1.426       .  A
C1217      C1222   1.435       .  A
C1218      C1219   1.426       .  A
C1218      H1223   1.083       .  S
C1219      C1220   1.380       .  A
C1220      C1221   1.412       .  A
C1220      H1224   1.062       .  S
C1221      C1288   1.516       .  S
C1221      C1222   1.414       .  A
C1222      H1225   1.083       .  S
O1226     Ni1232   1.885       .  S
O1226      C1247   1.263       .  A
O1227      C1236   1.300   1_554  A
O1228     Ni1232   1.895       .  S
O1228     Ni1244   1.916       .  S
O1228      H1251   0.966       .  S
C1229      O1246   1.281       .  A
C1229      O1238   1.271       .  A
C1229      C1314   1.369       .  S
O1230     Ni1249   1.850       .  S
O1230      C1236   1.247       .  A
O1231      C1233   1.256       .  A
Ni1232     O1235   1.860       .  S
Ni1232     O1237   1.917       .  S
C1233      O1243   1.252       .  A
C1233      C1262   1.434       .  S
O1234      C1240   1.268       .  A
O1235      C1240   1.256   1_556  A
C1236      C1341   1.514       .  S
O1237      C1239   1.280       .  A
O1238     Ni1249   1.857       .  S
C1240      C1332   1.480       .  S
H1241      O1242   0.967       .  S
O1242     Ni1249   1.866       .  S
Ni1244     O1248   1.875       .  S
C1247      O1248   1.262       .  A
C1247      C1299   1.429       .  S
O1252     Ni1258   1.888       .  S
O1252      C1273   1.258       .  A
O1253     Ni1276   1.925       .  S
O1253      C1262   1.277       .  A
O1254     Ni1258   1.849       .  S
O1254     Ni1276   1.851       .  S
O1254     Ni1270   1.856       .  S
O1254      H1277   0.966       .  S
C1255      O1272   1.258       .  A
C1255      O1264   1.251       .  A
C1255      C1393   1.444       .  S
O1256     Ni1275   1.859       .  S
O1256      C1262   1.255       .  A
O1257     Ni1275   1.904       .  S
O1257      C1259   1.267       .  A
Ni1258     O1263   1.879       .  S
C1259      O1269   1.305       .  A
C1259      C1387   1.471       .  S
O1260      C1266   1.284       .  A
O1261      C1266   1.276       .  A
O1264     Ni1275   1.848       .  S
C1265      C1318   1.457       .  S
C1266      C1281   1.391       .  S
H1267      O1268   0.967       .  S
O1268     Ni1276   1.905       .  S
O1268     Ni1270   1.955       .  S
O1268     Ni1275   1.907       .  S
O1269     Ni1270   1.999       .  S
Ni1270     O1274   1.975       .  S
Ni1270     O1272   1.895       .  S
O1271     Ni1276   1.930       .  S
C1273      O1274   1.283       .  A
O1278     Ni1284   1.862       .  S
O1278      C1299   1.243       .  A
O1279     Ni1302   1.992       .  S
O1279      C1288   1.287       .  A
O1280     Ni1284   1.883       .  S
O1280     Ni1302   1.907       .  S
O1280     Ni1296   1.892       .  S
O1280      H1303   0.966       .  S
C1281      O1298   1.267       .  A
C1281      O1290   1.286       .  A
O1282     Ni1301   1.891       .  S
O1282      C1288   1.260       .  A
O1283     Ni1301   1.893       .  S
Ni1284     O1287   1.863       .  S
Ni1284     O1289   1.881       .  S
C1285      C1317   1.463       .  S
O1286     Ni1302   1.925       .  S
O1286      C1292   1.294       .  A
O1287      C1292   1.267       .  A
O1289      C1291   1.261       .  A
O1290     Ni1301   1.930       .  S
C1291      O1297   1.275       .  A
C1291      C1397   1.460       .  S
C1292      C1389   1.416       .  S
H1293      O1294   0.967       .  S
O1294     Ni1302   1.867       .  S
O1294     Ni1296   1.859       .  S
O1294     Ni1301   1.854       .  S
O1295     Ni1296   1.940       .  S
Ni1296     O1300   1.894       .  S
Ni1296     O1298   1.830       .  S
O1297     Ni1302   1.949       .  S
C1299      O1300   1.253       .  A
O1304     Ni1310   1.903       .  S
O1304      C1325   1.262       .  A
O1305     Ni1328   1.819       .  S
O1305      C1314   1.244       .  A
O1306     Ni1310   1.866       .  S
O1306     Ni1328   1.845       .  S
O1306     Ni1322   1.909       .  S
O1306      H1329   0.967       .  S
C1307      O1324   1.303       .  A
C1307      O1316   1.274       .  A
C1307      C1385   1.501       .  S
O1308     Ni1327   1.875       .  S
O1308      C1314   1.245       .  A
O1309     Ni1327   1.911       .  S
O1309      C1311   1.270       .  A
Ni1310     O1313   1.971       .  S
Ni1310     O1315   1.884       .  S
C1311      O1321   1.283       .  A
C1311      C1399   1.519       .  S
O1312     Ni1328   1.874       .  S
O1312      C1318   1.268       .  A
O1313      C1318   1.296       .  A
O1316     Ni1327   1.918       .  S
H1319      O1320   0.966       .  S
O1320     Ni1328   1.912       .  S
O1320     Ni1322   1.893       .  S
O1320     Ni1327   1.910       .  S
O1321     Ni1322   1.976       .  S
Ni1322     O1326   1.970       .  S
Ni1322     O1324   1.977       .  S
O1323     Ni1328   1.943       .  S
C1325      O1326   1.282       .  A
C1330      C1360   1.510       .  S
C1330      C1331   1.416       .  A
C1330      C1335   1.433   1_556  A
C1331      C1332   1.422   1_556  A
C1331      H1336   1.082       .  S
C1332      C1333   1.382       .  A
C1333      C1334   1.396       .  A
C1333      H1337   1.073       .  S
C1334      C1335   1.409       .  A
C1335      H1338   1.083       .  S
C1339      C1370   1.539       .  S
C1339      C1340   1.422       .  A
C1339      C1344   1.439   1_556  A
C1340      C1341   1.421       .  A
C1340      H1345   1.082       .  S
C1341      C1342   1.368   1_556  A
C1342      C1343   1.423       .  A
C1342      H1346   1.069       .  S
C1343      C1344   1.437       .  A
C1344      H1347   1.082       .  S
C1348      C1367   1.528       .  S
C1348      C1349   1.431   1_556  A
C1348      C1353   1.437       .  A
C1349      C1350   1.420       .  A
C1349      H1354   1.083       .  S
C1350      C1351   1.412       .  A
C1351      C1352   1.380   1_554  A
C1351      H1355   1.084       .  S
C1352      C1353   1.434       .  A
C1353      H1356   1.083       .  S
O1357     Ni1363   1.959       .  S
O1357      C1378   1.279       .  A
O1358     Ni1381   1.994       .  S
O1358      C1367   1.288       .  A
O1359     Ni1363   1.943       .  S
O1359     Ni1381   1.961       .  S
O1359     Ni1375   1.946       .  S
O1359      H1382   0.966       .  S
C1360      O1377   1.301       .  A
C1360      O1369   1.277       .  A
O1361     Ni1380   1.930       .  S
O1361      C1367   1.270       .  A
O1362     Ni1380   1.913       .  S
O1362      C1364   1.269       .  A
Ni1363     O1366   1.945       .  S
Ni1363     O1368   1.942       .  S
C1364      O1374   1.314       .  A
O1365     Ni1381   1.953       .  S
O1365      C1371   1.287       .  A
O1366      C1371   1.277       .  A
O1368      C1370   1.280       .  A
O1369     Ni1380   1.911       .  S
C1370      O1376   1.285       .  A
C1371      C1391   1.503   1_655  S
H1372      O1373   0.966       .  S
O1373     Ni1381   1.914       .  S
O1373     Ni1375   1.943       .  S
O1373     Ni1380   1.910       .  S
O1374     Ni1375   2.061       .  S
Ni1375     O1379   2.049       .  S
Ni1375     O1377   1.985       .  S
O1376     Ni1381   1.989       .  S
C1378      O1379   1.314       .  A
C1378      C1395   1.584       .  S
C1383      N1384   1.388       .  A
C1383      N1388   1.377       .  A
N1384      C1385   1.384   1_545  A
C1385      N1386   1.338       .  A
N1386      C1387   1.344       .  A
C1387      N1388   1.386   1_565  A
C1389      N1390   1.359       .  A
C1389      N1394   1.327       .  A
N1392      C1393   1.379       .  A
C1393      N1394   1.324       .  A
C1395      N1396   1.376       .  A
C1395      N1400   1.403       .  A
N1396      C1397   1.383       .  A
C1397      N1398   1.340       .  A
N1398      C1399   1.335       .  A
C1399      N1400   1.399       .  A
