geometry optimzed in LAMMPS
_audit_creation_date              2020-12-01 
_audit_creation_method            'lammps2cif' 
_symmetry_space_group_name_H-M    'P1' 
_symmetry_Int_Tables_number       1 
_symmetry_cell_setting            triclinic 
loop_ 
_symmetry_equiv_pos_as_xyz 
  x,y,z 
_cell_length_a                    41.44414873 
_cell_length_b                    40.59477737066201 
_cell_length_c                    36.82519111072151 
_cell_angle_alpha                 89.96133998492078 
_cell_angle_beta                  89.80964806357277 
_cell_angle_gamma                 89.93707631490344 
loop_ 
_atom_site_label 
_atom_site_type_symbol 
_atom_site_fract_x 
_atom_site_fract_y 
_atom_site_fract_z 
_atom_site_charge 
C1          C  0.27848472  0.23270618  0.88212116     0.80100
N2          N  0.27680719  0.23094471  0.84522002    -0.78200
C3          C  0.25095526  0.24322613  0.82719684     0.82600
N4          N  0.22692682  0.25754932  0.84654256    -0.78100
C5          C  0.22824515  0.25995117  0.88326192     0.82700
N6          N  0.25415075  0.24737195  0.90129398    -0.79800
Zn7        Zn  0.46690248  0.00571864  0.97423112     1.49700
Zn8        Zn  0.04395589  0.99429968  0.97712234     1.49400
Zn9        Zn  0.00139283  0.46169287  0.91451708     1.49100
Zn10       Zn  0.01302139  0.04065631  0.91569713     1.49500
O11         O  0.00642023  0.00069761  0.94534212    -1.84200
O12         O  0.47721031  0.00392618  0.02746538    -0.74800
O13         O  0.06800893  0.45155052  0.96650070    -0.74700
O14         O  0.45978542  0.43642072  0.92441088    -0.74200
O15         O  0.02991318  0.99407500  0.02971696    -0.74900
O16         O  0.43557512  0.46870868  0.96462378    -0.74500
O17         O  0.03834973  0.43012295  0.92239162    -0.75000
O18         O  0.01143696  0.02911777  0.86199792    -0.74400
O19         O  0.07558282  0.03172780  0.97082550    -0.75200
O20         O  0.00112728  0.47535427  0.86200612    -0.74600
O21         O  0.05550657  0.06383388  0.92759628    -0.75100
O22         O  0.47698877  0.07349791  0.92480734    -0.75000
O23         O  0.44426662  0.04905081  0.96427445    -0.74700
C24         C  0.00288058  0.99878385  0.04552807     0.77000
C25         C  0.06259889  0.42871911  0.94357164     0.77500
C26         C  0.43590337  0.44277349  0.94514000     0.76500
C27         C  0.00555264  0.00237582  0.84505059     0.76900
C28         C  0.07746575  0.05725036  0.95071456     0.78000
C29         C  0.45137347  0.07353120  0.94410878     0.77100
C30         C  0.24269763  0.22469308  0.02125523     0.80100
N31         N  0.24340876  0.22571750  0.05811190    -0.78200
C32         C  0.25920351  0.24994636  0.07599082     0.82600
N33         N  0.27469264  0.27342235  0.05637457    -0.78100
C34         C  0.27468631  0.27270564  0.01937672     0.82700
N35         N  0.25849570  0.24826743  0.00167703    -0.81800
C36         C  0.47667040  0.02009814  0.37541704     0.80100
N37         N  0.47613915  0.02070222  0.33851913    -0.78200
C38         C  0.00002109  0.50638287  0.31890802     0.82600
N39         N  0.02426098  0.49087901  0.33659187    -0.78100
C40         C  0.02503916  0.48943390  0.37343247     0.82700
N41         N  0.50110614  0.00426853  0.39305739    -0.79800
Zn42       Zn  0.28405157  0.24222167  0.48274979     1.49700
Zn43       Zn  0.20717672  0.25423330  0.48215855     1.49400
Zn44       Zn  0.25147414  0.28640380  0.42095813     1.49100
Zn45       Zn  0.24081538  0.20868445  0.42058215     1.49500
O46         O  0.24577331  0.24768013  0.45173886    -1.84200
O47         O  0.27125831  0.24014511  0.53584848    -0.74800
O48         O  0.18304882  0.29693718  0.46955622    -0.74700
O49         O  0.29171185  0.31115383  0.43383288    -0.74200
O50         O  0.21919308  0.25346291  0.53579189    -0.74900
O51         O  0.31472818  0.28052487  0.47645655    -0.74500
O52         O  0.21379733  0.31741983  0.42562902    -0.75000
O53         O  0.24190301  0.22118479  0.36675564    -0.74400
O54         O  0.17619625  0.21651639  0.47403050    -0.75200
O55         O  0.25480361  0.27420354  0.36823464    -0.74600
O56         O  0.19902242  0.18446034  0.43226555    -0.75100
O57         O  0.27827736  0.17734530  0.42840900    -0.75000
O58         O  0.30919285  0.20099134  0.47004016    -0.74700
C59         C  0.24505370  0.24622084  0.55283634     0.77000
C60         C  0.18868416  0.31896480  0.44559186     0.77500
C61         C  0.31459870  0.30590225  0.45605885     0.76500
C62         C  0.24932692  0.24792754  0.35047933     0.76900
C63         C  0.17584917  0.19082835  0.45409318     0.78000
C64         C  0.30367743  0.17758352  0.44790216     0.77100
C65         C  0.47268326  0.48133942  0.51692354     0.80100
N66         N  0.47298411  0.48200142  0.55374514    -0.78200
C67         C  0.98760139  0.00678250  0.57197526     0.82600
N68         N  0.00238146  0.03103049  0.55279570    -0.78100
C69         C  0.00273314  0.03048470  0.51583880     0.82700
N70         N  0.98777944  0.00555498  0.49779333    -0.79800
C71         C  0.02176368  0.05555930  0.49635321    -0.01400
C72         C  0.04419353  0.04638908  0.46971656    -0.09400
C73         C  0.06777380  0.06871361  0.45792121    -0.18200
C74         C  0.06936482  0.10094197  0.47259692     0.04200
C75         C  0.04432012  0.11085896  0.49674171     0.18300
C76         C  0.02103158  0.08817235  0.50845210    -0.19700
C77         C  0.04359314  0.14287046  0.51067323    -0.20900
C78         C  0.06828824  0.16484720  0.50288033    -0.19500
C79         C  0.09455680  0.15516694  0.48142852     0.19700
C80         C  0.09536834  0.12328190  0.46546584     0.01900
C81         C  0.12288087  0.11474896  0.44459054    -0.14200
C82         C  0.14868138  0.13674837  0.44046570    -0.11900
C83         C  0.14793113  0.16794290  0.45682693     0.01400
C84         C  0.12047393  0.17702763  0.47683078    -0.24100
H85         H  0.04485812  0.02129266  0.45976296     0.09400
H86         H  0.08497529  0.05978227  0.43825031     0.13000
H87         H  0.00320895  0.09543407  0.52855663     0.11700
H88         H  0.02422939  0.15069853  0.52855842     0.12900
H89         H  0.06737796  0.18923704  0.51477841     0.11900
H90         H  0.12550263  0.09098931  0.43190112     0.09000
H91         H  0.16957467  0.12900621  0.42491038     0.12300
H92         H  0.11943286  0.20108740  0.48953037     0.14100
C93         C  0.45531829  0.45444657  0.49879701    -0.01400
C94         C  0.43237813  0.46111590  0.47205377    -0.09400
C95         C  0.41118212  0.43644971  0.46053510    -0.18200
C96         C  0.41254318  0.40429605  0.47557604     0.04200
C97         C  0.43733777  0.39742224  0.50107190     0.18300
C98         C  0.45836272  0.42238429  0.51229229    -0.19700
C99         C  0.44006638  0.36611758  0.51667801    -0.20900
C100        C  0.41750632  0.34184204  0.50913601    -0.19500
C101        C  0.39179544  0.34825464  0.48566027     0.19700
C102        C  0.38944989  0.37918586  0.46762617     0.01900
C103        C  0.36342845  0.38394454  0.44347079    -0.14200
C104        C  0.33977517  0.35981470  0.43913835    -0.11900
C105        C  0.34123817  0.33011735  0.45853767     0.01400
C106        C  0.36785904  0.32418601  0.48099409    -0.24100
H107        H  0.42960494  0.48590528  0.46155429     0.09400
H108        H  0.39334549  0.44362980  0.44084900     0.13000
H109        H  0.47628909  0.41725770  0.53294377     0.11700
H110        H  0.45918562  0.36069591  0.53578840     0.12900
H111        H  0.41970882  0.31816347  0.52252843     0.11900
H112        H  0.36033100  0.40625684  0.42802420     0.09000
H113        H  0.31980671  0.36485273  0.42106129     0.12300
H114        H  0.36961536  0.30107132  0.49563645     0.14100
C115        C  0.16556165  0.34663384  0.43974755    -0.01400
C116        C  0.13810080  0.35083036  0.46168771    -0.09400
C117        C  0.11588732  0.37619886  0.45471220    -0.18200
C118        C  0.12024469  0.39805921  0.42510114     0.04200
C119        C  0.14815874  0.39361641  0.40304729     0.18300
C120        C  0.17045341  0.36854810  0.41076161    -0.19700
C121        C  0.15340147  0.41366775  0.37270108    -0.20900
C122        C  0.13096918  0.43740540  0.36292359    -0.19500
C123        C  0.10301346  0.44215204  0.38363365     0.19700
C124        C  0.09754183  0.42335809  0.41565415     0.01900
C125        C  0.06930209  0.43039465  0.43611761    -0.14200
C126        C  0.04646085  0.45339434  0.42377258    -0.11900
C127        C  0.05111207  0.46996025  0.39076127     0.01400
C128        C  0.08000514  0.46496171  0.37165234    -0.24100
H129        H  0.13357534  0.33425936  0.48419060     0.09400
H130        H  0.09516196  0.37766201  0.47241571     0.13000
H131        H  0.19139909  0.36561919  0.39333365     0.11700
H132        H  0.17465176  0.41041743  0.35583879     0.12900
H133        H  0.13533436  0.45188809  0.33865566     0.11900
H134        H  0.06396611  0.41803296  0.46136224     0.09000
H135        H  0.02446981  0.45706465  0.43923520     0.12300
H136        H  0.08419631  0.47817528  0.34645533     0.14100
C137        C  0.32755927  0.15049423  0.44373737    -0.01400
C138        C  0.31927031  0.12214037  0.42428269    -0.09400
C139        C  0.34204411  0.09767234  0.41711966    -0.18200
C140        C  0.37437359  0.10085625  0.42879187     0.04200
C141        C  0.38253453  0.12901159  0.44976635     0.18300
C142        C  0.35913431  0.15335674  0.45725783    -0.19700
C143        C  0.41422762  0.13315891  0.46214989    -0.20900
C144        C  0.43826319  0.11056139  0.45300614    -0.19500
C145        C  0.43128182  0.08329935  0.43112311     0.19700
C146        C  0.39906673  0.07775076  0.41924537     0.01900
C147        C  0.39324925  0.05011098  0.39687261    -0.14200
C148        C  0.41854284  0.03034551  0.38470419    -0.11900
C149        C  0.45030966  0.03670317  0.39513653     0.01400
C150        C  0.45651538  0.06244505  0.41944577    -0.24100
H151        H  0.29502497  0.11897547  0.41396988     0.09400
H152        H  0.33359277  0.07686465  0.40176069     0.13000
H153        H  0.36587726  0.17512006  0.47247684     0.11700
H154        H  0.42062885  0.15441444  0.47836509     0.12900
H155        H  0.46268576  0.11493867  0.46230973     0.11900
H156        H  0.36962570  0.04376931  0.38703159     0.09000
H157        H  0.41339295  0.01053437  0.36589039     0.12300
H158        H  0.48122841  0.06768749  0.42712013     0.14100
C159        C  0.25184612  0.24880996  0.31018390    -0.01400
C160        C  0.26595166  0.27594846  0.29263256    -0.09400
C161        C  0.26840286  0.27725077  0.25476565    -0.18200
C162        C  0.25650443  0.25138188  0.23289088     0.04200
C163        C  0.24216359  0.22394047  0.25080904     0.18300
C164        C  0.24016070  0.22281176  0.28895339    -0.19700
C165        C  0.22968718  0.19777920  0.23056523    -0.20900
C166        C  0.23093948  0.19825618  0.19286882    -0.19500
C167        C  0.24485209  0.22483256  0.17436537     0.19700
C168        C  0.25804802  0.25175043  0.19397978     0.01900
C169        C  0.27206790  0.27775738  0.17368948    -0.14200
C170        C  0.27262381  0.27708095  0.13564080    -0.11900
C171        C  0.25922177  0.25060120  0.11644613     0.01400
C172        C  0.24549092  0.22454089  0.13622209    -0.24100
H173        H  0.27535199  0.29637148  0.30826747     0.09400
H174        H  0.27956542  0.29891437  0.24344742     0.13000
H175        H  0.22909568  0.20173908  0.30211049     0.11700
H176        H  0.21870863  0.17681047  0.24399395     0.12900
H177        H  0.22089351  0.17763853  0.17804892     0.11900
H178        H  0.28278536  0.29896337  0.18640243     0.09000
H179        H  0.28345161  0.29756661  0.12122933     0.12300
H180        H  0.23517255  0.20375858  0.12191666     0.14100
C181        C  0.40841993  0.41925298  0.94808308    -0.01400
C182        C  0.40775234  0.38954657  0.92853612    -0.09400
C183        C  0.38340528  0.36610369  0.93478311    -0.18200
C184        C  0.35911524  0.37153202  0.96128900     0.04200
C185        C  0.35928904  0.40231891  0.97974177     0.18300
C186        C  0.38337453  0.42571246  0.97271809    -0.19700
C187        C  0.33618566  0.40928356  0.00638244    -0.20900
C188        C  0.31381075  0.38570679  0.01664283    -0.19500
C189        C  0.31374138  0.35467203  0.00027196     0.19700
C190        C  0.33556642  0.34726107  0.97151008     0.01900
C191        C  0.33348193  0.31551913  0.95554724    -0.14200
C192        C  0.31219766  0.29161901  0.96945426    -0.11900
C193        C  0.29257881  0.29869970  0.99954625     0.01400
C194        C  0.29275050  0.33058510  0.01382543    -0.24100
H195        H  0.42656938  0.38398604  0.90899716     0.09400
H196        H  0.38473942  0.34358195  0.91934688     0.13000
H197        H  0.38327789  0.44862389  0.98782370     0.11700
H198        H  0.33607980  0.43280299  0.02029268     0.12900
H199        H  0.29695137  0.39152372  0.03827480     0.11900
H200        H  0.34861694  0.30824097  0.93305811     0.09000
H201        H  0.31233595  0.26710293  0.95792582     0.12300
H202        H  0.27719943  0.33634624  0.03671655     0.14100
C203        C  0.10553967  0.07976321  0.95532131    -0.01400
C204        C  0.13124853  0.07017973  0.97761711    -0.09400
C205        C  0.15648654  0.09172500  0.98529084    -0.18200
C206        C  0.15689660  0.12409220  0.97114844     0.04200
C207        C  0.13204371  0.13318014  0.94658142     0.18300
C208        C  0.10657360  0.11112745  0.93904213    -0.19700
C209        C  0.13251742  0.16443233  0.93034322    -0.20900
C210        C  0.15660421  0.18714846  0.93880828    -0.19500
C211        C  0.18029848  0.17960073  0.96458286     0.19700
C212        C  0.18069366  0.14790219  0.98113662     0.01900
C213        C  0.20384199  0.14192187  0.00844998    -0.14200
C214        C  0.22483797  0.16660434  0.01971887    -0.11900
C215        C  0.22419795  0.19790737  0.00382430     0.01400
C216        C  0.20254636  0.20404517  0.97538688    -0.24100
H217        H  0.13172057  0.04588967  0.98979643     0.09400
H218        H  0.17528387  0.08225266  0.00253061     0.13000
H219        H  0.08715835  0.11874584  0.92125039     0.11700
H220        H  0.11393132  0.17149774  0.91121672     0.12900
H221        H  0.15600948  0.21119134  0.92606458     0.11900
H222        H  0.20539061  0.11892754  0.02293293     0.09000
H223        H  0.24119593  0.16142497  0.04191263     0.12300
H224        H  0.20146126  0.22845996  0.96353735     0.14100
C225        C  0.98841118  0.00638294  0.61228830    -0.01400
C226        C  0.97818654  0.47831950  0.63130481    -0.09400
C227        C  0.98009037  0.47679283  0.66906250    -0.18200
C228        C  0.99230791  0.00351085  0.68938667     0.04200
C229        C  0.50143299  0.03247237  0.67021587     0.18300
C230        C  0.49971534  0.03355721  0.63206181    -0.19700
C231        C  0.51232269  0.06013949  0.68924596    -0.20900
C232        C  0.51459156  0.05958547  0.72693885    -0.19500
C233        C  0.50670492  0.03112006  0.74652180     0.19700
C234        C  0.99573432  0.00254522  0.72799137     0.01900
C235        C  0.98919072  0.47407459  0.74886674    -0.14200
C236        C  0.99287095  0.47415974  0.78649329    -0.11900
C237        C  0.00302088  0.00254917  0.80484074     0.01400
C238        C  0.50994055  0.03098408  0.78455973    -0.24100
H239        H  0.96900477  0.45704321  0.61693945     0.09400
H240        H  0.97165513  0.45436500  0.68148730     0.13000
H241        H  0.50723438  0.05562988  0.61779032     0.11700
H242        H  0.51907799  0.08240640  0.67487926     0.12900
H243        H  0.52299034  0.08146904  0.74084160     0.11900
H244        H  0.98152820  0.45117322  0.73695405     0.09000
H245        H  0.98743565  0.45177203  0.80131216     0.12300
H246        H  0.51800921  0.05306750  0.79834569     0.14100
C247        C  0.99950633  0.00694905  0.27868449    -0.01400
C248        C  0.47103115  0.01405614  0.25980899    -0.09400
C249        C  0.47024695  0.01294504  0.22188561    -0.18200
C250        C  0.99817947  0.00487865  0.20151975     0.04200
C251        C  0.02730422  0.49916167  0.22080348     0.18300
C252        C  0.02761719  0.49986657  0.25888173    -0.19700
C253        C  0.05602375  0.49271572  0.20202115    -0.20900
C254        C  0.05647834  0.49167391  0.16433446    -0.19500
C255        C  0.02808978  0.49630337  0.14453228     0.19700
C256        C  0.99840789  0.00252557  0.16279592     0.01900
C257        C  0.47026199  0.00570410  0.14148769    -0.14200
C258        C  0.47176201  0.00388726  0.10366353    -0.11900
C259        C  0.00126564  0.99888756  0.08573296     0.01400
C260        C  0.02927619  0.49474068  0.10647523    -0.24100
H261        H  0.44904145  0.01994965  0.27440964     0.09400
H262        H  0.44748379  0.01871424  0.20931885     0.13000
H263        H  0.04996343  0.49497548  0.27313795     0.11700
H264        H  0.07834948  0.48860626  0.21658601     0.12900
H265        H  0.07916824  0.48687734  0.15058527     0.11900
H266        H  0.44668361  0.00938561  0.15323259     0.09000
H267        H  0.44963834  0.00671255  0.08839534     0.12300
H268        H  0.05220893  0.49049470  0.09299766     0.14100
C269        C  0.24885213  0.24187288  0.78685985    -0.01400
C270        C  0.22184018  0.25513685  0.76921151    -0.09400
C271        C  0.21973275  0.25547389  0.73142131    -0.18200
C272        C  0.24475803  0.24249493  0.70954182     0.04200
C273        C  0.27191942  0.22849270  0.72738754     0.18300
C274        C  0.27368942  0.22818917  0.76562616    -0.19700
C275        C  0.29734428  0.21525372  0.70692744    -0.20900
C276        C  0.29664153  0.21610392  0.66914079    -0.19500
C277        C  0.27044208  0.23008567  0.65076036     0.19700
C278        C  0.24394714  0.24321614  0.67066846     0.01900
C279        C  0.21792692  0.25668338  0.65073670    -0.14200
C280        C  0.21834724  0.25734704  0.61280033    -0.11900
C281        C  0.24469303  0.24485833  0.59322252     0.01400
C282        C  0.27064456  0.23113823  0.61252785    -0.24100
H283        H  0.20211444  0.26572803  0.78465207     0.09400
H284        H  0.19826082  0.26638298  0.72023067     0.13000
H285        H  0.29467813  0.21768646  0.77878590     0.11700
H286        H  0.31808439  0.20442431  0.72025190     0.12900
H287        H  0.31686388  0.20587896  0.65416164     0.11900
H288        H  0.19683746  0.26699030  0.66359661     0.09000
H289        H  0.19796044  0.26805690  0.59873281     0.12300
H290        H  0.29110624  0.22111830  0.59777096     0.14100
C291        C  0.42902482  0.10219359  0.94205563    -0.01400
C292        C  0.43664101  0.12920370  0.91991125    -0.09400
C293        C  0.41453418  0.15469273  0.91453353    -0.18200
C294        C  0.38361129  0.15395959  0.93089234     0.04200
C295        C  0.37656494  0.12750030  0.95495430     0.18300
C296        C  0.39926397  0.10212741  0.96048588    -0.19700
C297        C  0.34639567  0.12582370  0.97214985    -0.20900
C298        C  0.32237754  0.14877309  0.96434853    -0.19500
C299        C  0.32788878  0.17394455  0.93907034     0.19700
C300        C  0.35892022  0.17750134  0.92280370     0.01900
C301        C  0.36328099  0.20333910  0.89749082    -0.14200
C302        C  0.33728486  0.22253145  0.88613630    -0.11900
C303        C  0.30638907  0.21749339  0.90042415     0.01400
C304        C  0.30207783  0.19434055  0.92825388    -0.24100
H305        H  0.45958682  0.13032350  0.90581116     0.09400
H306        H  0.42215566  0.17419101  0.89659268     0.13000
H307        H  0.39315104  0.08161733  0.97808463     0.11700
H308        H  0.34096530  0.10597654  0.99089480     0.12900
H309        H  0.29894278  0.14608598  0.97717306     0.11900
H310        H  0.38613885  0.20841927  0.88465275     0.09000
H311        H  0.34109120  0.24068763  0.86497492     0.12300
H312        H  0.27811668  0.19039909  0.93936782     0.14100
C313        C  0.20150700  0.27721871  0.90194144    -0.01400
C314        C  0.17043676  0.27399311  0.88766752    -0.09400
C315        C  0.14571441  0.29514041  0.89811987    -0.18200
C316        C  0.15138632  0.32106634  0.92282162     0.04200
C317        C  0.18222179  0.32267442  0.93966890     0.18300
C318        C  0.20695985  0.30050736  0.92940501    -0.19700
C319        C  0.18854774  0.34750287  0.96508579    -0.20900
C320        C  0.16558145  0.37178393  0.97254804    -0.19500
C321        C  0.13578828  0.37203189  0.95457959     0.19700
C322        C  0.12806183  0.34622180  0.93003099     0.01900
C323        C  0.09787855  0.34754865  0.91233918    -0.14200
C324        C  0.07688460  0.37391400  0.91754335    -0.11900
C325        C  0.08478487  0.39996130  0.94078992     0.01400
C326        C  0.11407093  0.39845119  0.95998223    -0.24100
H327        H  0.16552443  0.25569291  0.86700319     0.09400
H328        H  0.12273781  0.29114673  0.88526565     0.13000
H329        H  0.23096013  0.30303680  0.94070871     0.11700
H330        H  0.21176500  0.34871894  0.97848812     0.12900
H331        H  0.17158122  0.39111037  0.99165002     0.11900
H332        H  0.08994432  0.32901203  0.89346428     0.09000
H333        H  0.05437918  0.37403664  0.90267073     0.12300
H334        H  0.12046626  0.41832113  0.97824231     0.14100
C335        C  0.27848462  0.73270620  0.88212116     0.80100
N336        N  0.27680708  0.73094471  0.84522001    -0.78200
C337        C  0.25095515  0.74322612  0.82719683     0.82600
N338        N  0.22692665  0.75754922  0.84654257    -0.78100
C339        C  0.22824501  0.75995111  0.88326191     0.82700
N340        N  0.25415068  0.74737202  0.90129397    -0.79800
Zn341      Zn  0.46690244  0.50571860  0.97423114     1.49700
Zn342      Zn  0.04395595  0.49429960  0.97712234     1.49400
Zn343      Zn  0.00139275  0.96169298  0.91451708     1.49100
Zn344      Zn  0.01302140  0.54065620  0.91569699     1.49500
O345        O  0.00642035  0.50069749  0.94534207    -1.84200
O346        O  0.47721028  0.50392628  0.02746541    -0.74800
O347        O  0.06800884  0.95155057  0.96650069    -0.74700
O348        O  0.45978555  0.93642061  0.92441098    -0.74200
O349        O  0.02991326  0.49407493  0.02971695    -0.74900
O350        O  0.43557515  0.96870870  0.96462370    -0.74500
O351        O  0.03834963  0.93012304  0.92239161    -0.75000
O352        O  0.01143698  0.52911767  0.86199786    -0.74400
O353        O  0.07558284  0.53172777  0.97082550    -0.75200
O354        O  0.00112705  0.97535441  0.86200613    -0.74600
O355        O  0.05550659  0.56383385  0.92759626    -0.75100
O356        O  0.47698869  0.57349799  0.92480745    -0.75000
O357        O  0.44426656  0.54905082  0.96427452    -0.74700
C358        C  0.00288064  0.49878374  0.04552807     0.77000
C359        C  0.06259876  0.92871916  0.94357166     0.77500
C360        C  0.43590344  0.94277344  0.94514001     0.76500
C361        C  0.00555276  0.50237570  0.84505056     0.76900
C362        C  0.07746577  0.55725033  0.95071454     0.78000
C363        C  0.45137342  0.57353126  0.94410890     0.77100
C364        C  0.24269769  0.72469302  0.02125521     0.80100
N365        N  0.24340890  0.72571736  0.05811189    -0.78200
C366        C  0.25920357  0.74994627  0.07599080     0.82600
N367        N  0.27469267  0.77342229  0.05637456    -0.78100
C368        C  0.27468633  0.77270560  0.01937672     0.82700
N369        N  0.25849568  0.74826743  0.00167702    -0.81800
C370        C  0.47667037  0.52009813  0.37541707     0.80100
N371        N  0.47613909  0.52070219  0.33851915    -0.78200
C372        C  0.00002101  0.00638286  0.31890801     0.82600
N373        N  0.02426089  0.99087899  0.33659186    -0.78100
C374        C  0.02503912  0.98943392  0.37343246     0.82700
N375        N  0.50110610  0.50426851  0.39305740    -0.79800
Zn376      Zn  0.28405153  0.74222158  0.48274976     1.49700
Zn377      Zn  0.20717659  0.75423330  0.48215853     1.49400
Zn378      Zn  0.25147410  0.78640374  0.42095814     1.49100
Zn379      Zn  0.24081532  0.70868444  0.42058216     1.49500
O380        O  0.24577323  0.74768007  0.45173890    -1.84200
O381        O  0.27125825  0.74014514  0.53584844    -0.74800
O382        O  0.18304874  0.79693716  0.46955618    -0.74700
O383        O  0.29171176  0.81115388  0.43383288    -0.74200
O384        O  0.21919295  0.75346277  0.53579185    -0.74900
O385        O  0.31472818  0.78052477  0.47645635    -0.74500
O386        O  0.21379731  0.81741985  0.42562905    -0.75000
O387        O  0.24190298  0.72118485  0.36675566    -0.74400
O388        O  0.17619616  0.71651642  0.47403038    -0.75200
O389        O  0.25480359  0.77420359  0.36823460    -0.74600
O390        O  0.19902236  0.68446030  0.43226552    -0.75100
O391        O  0.27827724  0.67734518  0.42840908    -0.75000
O392        O  0.30919280  0.70099129  0.47004010    -0.74700
C393        C  0.24505362  0.74622080  0.55283630     0.77000
C394        C  0.18868411  0.81896479  0.44559186     0.77500
C395        C  0.31459866  0.80590222  0.45605877     0.76500
C396        C  0.24932690  0.74792758  0.35047931     0.76900
C397        C  0.17584908  0.69082836  0.45409310     0.78000
C398        C  0.30367735  0.67758344  0.44790217     0.77100
C399        C  0.47268321  0.98133939  0.51692351     0.80100
N400        N  0.47298405  0.98200140  0.55374511    -0.78200
C401        C  0.98760139  0.50678237  0.57197526     0.82600
N402        N  0.00238145  0.53103036  0.55279571    -0.78100
C403        C  0.00273314  0.53048461  0.51583881     0.82700
N404        N  0.98777945  0.50555488  0.49779332    -0.79800
C405        C  0.02176365  0.55555926  0.49635326    -0.01400
C406        C  0.04419347  0.54638909  0.46971655    -0.09400
C407        C  0.06777373  0.56871361  0.45792122    -0.18200
C408        C  0.06936477  0.60094196  0.47259696     0.04200
C409        C  0.04432008  0.61085894  0.49674178     0.18300
C410        C  0.02103160  0.58817231  0.50845222    -0.19700
C411        C  0.04359310  0.64287048  0.51067323    -0.20900
C412        C  0.06828819  0.66484716  0.50288030    -0.19500
C413        C  0.09455676  0.65516693  0.48142855     0.19700
C414        C  0.09536830  0.62328185  0.46546590     0.01900
C415        C  0.12288082  0.61474893  0.44459058    -0.14200
C416        C  0.14868126  0.63674840  0.44046562    -0.11900
C417        C  0.14793101  0.66794295  0.45682685     0.01400
C418        C  0.12047385  0.67702761  0.47683077    -0.24100
H419        H  0.04485806  0.52129268  0.45976289     0.09400
H420        H  0.08497521  0.55978229  0.43825030     0.13000
H421        H  0.00320901  0.59543403  0.52855686     0.11700
H422        H  0.02422936  0.65069859  0.52855843     0.12900
H423        H  0.06737791  0.68923710  0.51477835     0.11900
H424        H  0.12550261  0.59098925  0.43190120     0.09000
H425        H  0.16957453  0.62900627  0.42491025     0.12300
H426        H  0.11943275  0.70108743  0.48953041     0.14100
C427        C  0.45531827  0.95444652  0.49879696    -0.01400
C428        C  0.43237815  0.96111582  0.47205367    -0.09400
C429        C  0.41118210  0.93644963  0.46053509    -0.18200
C430        C  0.41254317  0.90429597  0.47557603     0.04200
C431        C  0.43733776  0.89742215  0.50107189     0.18300
C432        C  0.45836268  0.92238423  0.51229228    -0.19700
C433        C  0.44006634  0.86611747  0.51667800    -0.20900
C434        C  0.41750629  0.84184192  0.50913598    -0.19500
C435        C  0.39179542  0.84825456  0.48566020     0.19700
C436        C  0.38944987  0.87918580  0.46762616     0.01900
C437        C  0.36342843  0.88394452  0.44347081    -0.14200
C438        C  0.33977512  0.85981472  0.43913836    -0.11900
C439        C  0.34123813  0.83011734  0.45853760     0.01400
C440        C  0.36785903  0.82418590  0.48099398    -0.24100
H441        H  0.42960500  0.98590519  0.46155414     0.09400
H442        H  0.39334542  0.94362973  0.44084904     0.13000
H443        H  0.47628903  0.91725766  0.53294379     0.11700
H444        H  0.45918558  0.86069576  0.53578842     0.12900
H445        H  0.41970876  0.81816335  0.52252838     0.11900
H446        H  0.36033098  0.90625686  0.42802422     0.09000
H447        H  0.31980665  0.86485280  0.42106133     0.12300
H448        H  0.36961536  0.80107122  0.49563621     0.14100
C449        C  0.16556158  0.84663380  0.43974754    -0.01400
C450        C  0.13810072  0.85083031  0.46168768    -0.09400
C451        C  0.11588725  0.87619882  0.45471219    -0.18200
C452        C  0.12024467  0.89805923  0.42510116     0.04200
C453        C  0.14815870  0.89361639  0.40304729     0.18300
C454        C  0.17045332  0.86854805  0.41076160    -0.19700
C455        C  0.15340142  0.91366773  0.37270106    -0.20900
C456        C  0.13096919  0.93740542  0.36292360    -0.19500
C457        C  0.10301347  0.94215210  0.38363366     0.19700
C458        C  0.09754186  0.92335815  0.41565417     0.01900
C459        C  0.06930214  0.93039475  0.43611766    -0.14200
C460        C  0.04646087  0.95339441  0.42377260    -0.11900
C461        C  0.05111206  0.96996030  0.39076126     0.01400
C462        C  0.08000513  0.96496177  0.37165234    -0.24100
H463        H  0.13357525  0.83425931  0.48419062     0.09400
H464        H  0.09516189  0.87766198  0.47241568     0.13000
H465        H  0.19139899  0.86561913  0.39333358     0.11700
H466        H  0.17465170  0.91041736  0.35583873     0.12900
H467        H  0.13533438  0.95188814  0.33865566     0.11900
H468        H  0.06396619  0.91803309  0.46136229     0.09000
H469        H  0.02446983  0.95706468  0.43923522     0.12300
H470        H  0.08419626  0.97817532  0.34645528     0.14100
C471        C  0.32755920  0.65049417  0.44373738    -0.01400
C472        C  0.31927028  0.62214032  0.42428266    -0.09400
C473        C  0.34204407  0.59767230  0.41711969    -0.18200
C474        C  0.37437355  0.60085623  0.42879190     0.04200
C475        C  0.38253447  0.62901156  0.44976639     0.18300
C476        C  0.35913425  0.65335672  0.45725786    -0.19700
C477        C  0.41422754  0.63315883  0.46215003    -0.20900
C478        C  0.43826308  0.61056130  0.45300635    -0.19500
C479        C  0.43128177  0.58329932  0.43112324     0.19700
C480        C  0.39906667  0.57775077  0.41924540     0.01900
C481        C  0.39324923  0.55011101  0.39687259    -0.14200
C482        C  0.41854282  0.53034558  0.38470416    -0.11900
C483        C  0.45030964  0.53670321  0.39513656     0.01400
C484        C  0.45651531  0.56244503  0.41944589    -0.24100
H485        H  0.29502496  0.61897542  0.41396978     0.09400
H486        H  0.33359274  0.57686458  0.40176072     0.13000
H487        H  0.36587719  0.67511999  0.47247688     0.11700
H488        H  0.42062876  0.65441437  0.47836528     0.12900
H489        H  0.46268571  0.61493855  0.46231003     0.11900
H490        H  0.36962567  0.54376932  0.38703156     0.09000
H491        H  0.41339295  0.51053444  0.36589036     0.12300
H492        H  0.48122837  0.56768746  0.42712036     0.14100
C493        C  0.25184612  0.74880996  0.31018387    -0.01400
C494        C  0.26595161  0.77594849  0.29263254    -0.09400
C495        C  0.26840271  0.77725083  0.25476558    -0.18200
C496        C  0.25650434  0.75138191  0.23289084     0.04200
C497        C  0.24216354  0.72394050  0.25080901     0.18300
C498        C  0.24016068  0.72281176  0.28895338    -0.19700
C499        C  0.22968714  0.69777919  0.23056524    -0.20900
C500        C  0.23093949  0.69825617  0.19286883    -0.19500
C501        C  0.24485206  0.72483254  0.17436535     0.19700
C502        C  0.25804797  0.75175044  0.19397973     0.01900
C503        C  0.27206788  0.77775739  0.17368943    -0.14200
C504        C  0.27262372  0.77708094  0.13564076    -0.11900
C505        C  0.25922174  0.75060116  0.11644610     0.01400
C506        C  0.24549092  0.72454085  0.13622208    -0.24100
H507        H  0.27535194  0.79637146  0.30826742     0.09400
H508        H  0.27956514  0.79891448  0.24344736     0.13000
H509        H  0.22909567  0.70173907  0.30211047     0.11700
H510        H  0.21870864  0.67681051  0.24399396     0.12900
H511        H  0.22089356  0.67763846  0.17804894     0.11900
H512        H  0.28278536  0.79896334  0.18640232     0.09000
H513        H  0.28345148  0.79756665  0.12122924     0.12300
H514        H  0.23517261  0.70375849  0.12191665     0.14100
C515        C  0.40842001  0.91925294  0.94808311    -0.01400
C516        C  0.40775238  0.88954655  0.92853613    -0.09400
C517        C  0.38340531  0.86610366  0.93478305    -0.18200
C518        C  0.35911530  0.87153198  0.96128900     0.04200
C519        C  0.35928908  0.90231888  0.97974178     0.18300
C520        C  0.38337458  0.92571238  0.97271810    -0.19700
C521        C  0.33618567  0.90928350  0.00638240    -0.20900
C522        C  0.31381075  0.88570675  0.01664280    -0.19500
C523        C  0.31374141  0.85467198  0.00027192     0.19700
C524        C  0.33556648  0.84726102  0.97151009     0.01900
C525        C  0.33348197  0.81551908  0.95554721    -0.14200
C526        C  0.31219764  0.79161897  0.96945422    -0.11900
C527        C  0.29257880  0.79869967  0.99954621     0.01400
C528        C  0.29275044  0.83058510  0.01382535    -0.24100
H529        H  0.42656944  0.88398600  0.90899712     0.09400
H530        H  0.38473940  0.84358202  0.91934679     0.13000
H531        H  0.38327793  0.94862387  0.98782376     0.11700
H532        H  0.33607978  0.93280299  0.02029267     0.12900
H533        H  0.29695137  0.89152365  0.03827472     0.11900
H534        H  0.34861692  0.80824094  0.93305809     0.09000
H535        H  0.31233589  0.76710289  0.95792575     0.12300
H536        H  0.27719933  0.83634627  0.03671637     0.14100
C537        C  0.10553974  0.57976315  0.95532130    -0.01400
C538        C  0.13124859  0.57017970  0.97761711    -0.09400
C539        C  0.15648659  0.59172499  0.98529087    -0.18200
C540        C  0.15689664  0.62409217  0.97114841     0.04200
C541        C  0.13204378  0.63318010  0.94658139     0.18300
C542        C  0.10657364  0.61112740  0.93904213    -0.19700
C543        C  0.13251753  0.66443227  0.93034314    -0.20900
C544        C  0.15660435  0.68714837  0.93880819    -0.19500
C545        C  0.18029863  0.67960064  0.96458273     0.19700
C546        C  0.18069375  0.64790215  0.98113652     0.01900
C547        C  0.20384203  0.64192179  0.00844994    -0.14200
C548        C  0.22483796  0.66660431  0.01971888    -0.11900
C549        C  0.22419800  0.69790730  0.00382428     0.01400
C550        C  0.20254650  0.70404511  0.97538677    -0.24100
H551        H  0.13172066  0.54588964  0.98979645     0.09400
H552        H  0.17528388  0.58225271  0.00253064     0.13000
H553        H  0.08715840  0.61874576  0.92125043     0.11700
H554        H  0.11393146  0.67149768  0.91121663     0.12900
H555        H  0.15600960  0.71119129  0.92606450     0.11900
H556        H  0.20539066  0.61892757  0.02293286     0.09000
H557        H  0.24119587  0.66142491  0.04191269     0.12300
H558        H  0.20146140  0.72845986  0.96353727     0.14100
C559        C  0.98841117  0.50638283  0.61228830    -0.01400
C560        C  0.97818650  0.97831961  0.63130479    -0.09400
C561        C  0.98009028  0.97679296  0.66906249    -0.18200
C562        C  0.99230802  0.50351071  0.68938667     0.04200
C563        C  0.50143315  0.53247245  0.67021586     0.18300
C564        C  0.49971556  0.53355727  0.63206180    -0.19700
C565        C  0.51232291  0.56013953  0.68924597    -0.20900
C566        C  0.51459172  0.55958553  0.72693885    -0.19500
C567        C  0.50670495  0.53112015  0.74652181     0.19700
C568        C  0.99573450  0.50254504  0.72799136     0.01900
C569        C  0.98919058  0.97407473  0.74886673    -0.14200
C570        C  0.99287090  0.97415985  0.78649327    -0.11900
C571        C  0.00302095  0.50254906  0.80484074     0.01400
C572        C  0.50994054  0.53098419  0.78455975    -0.24100
H573        H  0.96900470  0.95704336  0.61693942     0.09400
H574        H  0.97165499  0.95436514  0.68148727     0.13000
H575        H  0.50723466  0.55562990  0.61779030     0.11700
H576        H  0.51907830  0.58240645  0.67487926     0.12900
H577        H  0.52299057  0.58146906  0.74084161     0.11900
H578        H  0.98152802  0.95117341  0.73695405     0.09000
H579        H  0.98743558  0.95177215  0.80131212     0.12300
H580        H  0.51800924  0.55306759  0.79834571     0.14100
C581        C  0.99950643  0.50694906  0.27868449    -0.01400
C582        C  0.47103111  0.51405623  0.25980901    -0.09400
C583        C  0.47024690  0.51294513  0.22188562    -0.18200
C584        C  0.99817956  0.50487860  0.20151975     0.04200
C585        C  0.02730414  0.99916173  0.22080348     0.18300
C586        C  0.02761710  0.99986662  0.25888173    -0.19700
C587        C  0.05602369  0.99271582  0.20202116    -0.20900
C588        C  0.05647828  0.99167400  0.16433447    -0.19500
C589        C  0.02808971  0.99630342  0.14453228     0.19700
C590        C  0.99840798  0.50252553  0.16279591     0.01900
C591        C  0.47026198  0.50570419  0.14148770    -0.14200
C592        C  0.47176199  0.50388736  0.10366356    -0.11900
C593        C  0.00126573  0.49888751  0.08573296     0.01400
C594        C  0.02927609  0.99474066  0.10647524    -0.24100
H595        H  0.44904143  0.51994977  0.27440966     0.09400
H596        H  0.44748373  0.51871433  0.20931886     0.13000
H597        H  0.04996335  0.99497558  0.27313795     0.11700
H598        H  0.07834940  0.98860638  0.21658600     0.12900
H599        H  0.07916819  0.98687742  0.15058529     0.11900
H600        H  0.44668360  0.50938570  0.15323259     0.09000
H601        H  0.44963832  0.50671263  0.08839535     0.12300
H602        H  0.05220881  0.99049458  0.09299766     0.14100
C603        C  0.24885205  0.74187295  0.78685983    -0.01400
C604        C  0.22184011  0.75513689  0.76921147    -0.09400
C605        C  0.21973268  0.75547399  0.73142128    -0.18200
C606        C  0.24475800  0.74249502  0.70954179     0.04200
C607        C  0.27191937  0.72849279  0.72738752     0.18300
C608        C  0.27368936  0.72818927  0.76562613    -0.19700
C609        C  0.29734425  0.71525381  0.70692742    -0.20900
C610        C  0.29664151  0.71610404  0.66914077    -0.19500
C611        C  0.27044206  0.73008577  0.65076034     0.19700
C612        C  0.24394710  0.74321623  0.67066844     0.01900
C613        C  0.21792689  0.75668345  0.65073667    -0.14200
C614        C  0.21834721  0.75734712  0.61280031    -0.11900
C615        C  0.24469297  0.74485837  0.59322249     0.01400
C616        C  0.27064453  0.73113832  0.61252783    -0.24100
H617        H  0.20211432  0.76572805  0.78465206     0.09400
H618        H  0.19826079  0.76638309  0.72023066     0.13000
H619        H  0.29467808  0.71768657  0.77878586     0.11700
H620        H  0.31808437  0.70442442  0.72025186     0.12900
H621        H  0.31686390  0.70587910  0.65416161     0.11900
H622        H  0.19683739  0.76699032  0.66359659     0.09000
H623        H  0.19796039  0.76805695  0.59873278     0.12300
H624        H  0.29110620  0.72111837  0.59777093     0.14100
C625        C  0.42902478  0.60219368  0.94205581    -0.01400
C626        C  0.43664095  0.62920373  0.91991134    -0.09400
C627        C  0.41453410  0.65469273  0.91453351    -0.18200
C628        C  0.38361122  0.65395959  0.93089235     0.04200
C629        C  0.37656490  0.62750035  0.95495438     0.18300
C630        C  0.39926395  0.60212752  0.96048606    -0.19700
C631        C  0.34639561  0.62582368  0.97214988    -0.20900
C632        C  0.32237743  0.64877304  0.96434850    -0.19500
C633        C  0.32788871  0.67394452  0.93907034     0.19700
C634        C  0.35892013  0.67750132  0.92280369     0.01900
C635        C  0.36328088  0.70333906  0.89749080    -0.14200
C636        C  0.33728477  0.72253143  0.88613633    -0.11900
C637        C  0.30638898  0.71749339  0.90042415     0.01400
C638        C  0.30207772  0.69434053  0.92825390    -0.24100
H639        H  0.45958675  0.63032349  0.90581124     0.09400
H640        H  0.42215555  0.67419095  0.89659264     0.13000
H641        H  0.39315102  0.58161745  0.97808486     0.11700
H642        H  0.34096528  0.60597655  0.99089482     0.12900
H643        H  0.29894270  0.64608586  0.97717295     0.11900
H644        H  0.38613874  0.70841922  0.88465265     0.09000
H645        H  0.34109114  0.74068766  0.86497496     0.12300
H646        H  0.27811666  0.69039909  0.93936788     0.14100
C647        C  0.20150686  0.77721868  0.90194145    -0.01400
C648        C  0.17043660  0.77399312  0.88766754    -0.09400
C649        C  0.14571428  0.79514050  0.89811986    -0.18200
C650        C  0.15138624  0.82106640  0.92282161     0.04200
C651        C  0.18222171  0.82267447  0.93966888     0.18300
C652        C  0.20695975  0.80050737  0.92940496    -0.19700
C653        C  0.18854767  0.84750288  0.96508580    -0.20900
C654        C  0.16558138  0.87178397  0.97254802    -0.19500
C655        C  0.13578818  0.87203193  0.95457958     0.19700
C656        C  0.12806172  0.84622184  0.93003100     0.01900
C657        C  0.09787841  0.84754867  0.91233920    -0.14200
C658        C  0.07688444  0.87391400  0.91754338    -0.11900
C659        C  0.08478468  0.89996128  0.94078998     0.01400
C660        C  0.11407078  0.89845119  0.95998224    -0.24100
H661        H  0.16552420  0.75569295  0.86700323     0.09400
H662        H  0.12273772  0.79114685  0.88526568     0.13000
H663        H  0.23096006  0.80303680  0.94070860     0.11700
H664        H  0.21176491  0.84871891  0.97848819     0.12900
H665        H  0.17158115  0.89111039  0.99165000     0.11900
H666        H  0.08994421  0.82901208  0.89346426     0.09000
H667        H  0.05437901  0.87403667  0.90267068     0.12300
H668        H  0.12046610  0.91832116  0.97824233     0.14100
C669        C  0.77848459  0.23270616  0.88212118     0.80100
N670        N  0.77680708  0.23094472  0.84522002    -0.78200
C671        C  0.75095514  0.24322618  0.82719684     0.82600
N672        N  0.72692669  0.25754934  0.84654258    -0.78100
C673        C  0.72824503  0.25995118  0.88326193     0.82700
N674        N  0.75415064  0.24737194  0.90129399    -0.79800
Zn675      Zn  0.96690238  0.00571866  0.97423113     1.49700
Zn676      Zn  0.54395599  0.99429965  0.97712235     1.49400
Zn677      Zn  0.50139273  0.46169300  0.91451708     1.49100
Zn678      Zn  0.51302149  0.04065618  0.91569702     1.49500
O679        O  0.50642034  0.00069750  0.94534210    -1.84200
O680        O  0.97721021  0.00392624  0.02746540    -0.74800
O681        O  0.56800882  0.45155053  0.96650074    -0.74700
O682        O  0.95978549  0.43642067  0.92441094    -0.74200
O683        O  0.52991328  0.99407495  0.02971698    -0.74900
O684        O  0.93557514  0.46870870  0.96462373    -0.74500
O685        O  0.53834962  0.43012299  0.92239163    -0.75000
O686        O  0.51143692  0.02911777  0.86199784    -0.74400
O687        O  0.57558282  0.03172779  0.97082553    -0.75200
O688        O  0.50112717  0.47535447  0.86200615    -0.74600
O689        O  0.55550665  0.06383381  0.92759619    -0.75100
O690        O  0.97698867  0.07349795  0.92480736    -0.75000
O691        O  0.94426652  0.04905082  0.96427445    -0.74700
C692        C  0.50288066  0.99878378  0.04552807     0.77000
C693        C  0.56259877  0.42871913  0.94357169     0.77500
C694        C  0.93590340  0.44277349  0.94514000     0.76500
C695        C  0.50555267  0.00237579  0.84505056     0.76900
C696        C  0.57746578  0.05725032  0.95071455     0.78000
C697        C  0.95137338  0.07353121  0.94410879     0.77100
C698        C  0.74269770  0.22469304  0.02125521     0.80100
N699        N  0.74340888  0.22571744  0.05811189    -0.78200
C700        C  0.75920355  0.24994634  0.07599080     0.82600
N701        N  0.77469265  0.27342238  0.05637454    -0.78100
C702        C  0.77468634  0.27270564  0.01937670     0.82700
N703        N  0.75849572  0.24826745  0.00167701    -0.81800
C704        C  0.97667034  0.02009818  0.37541705     0.80100
N705        N  0.97613909  0.02070223  0.33851914    -0.78200
C706        C  0.50002109  0.50638292  0.31890803     0.82600
N707        N  0.52426101  0.49087914  0.33659186    -0.78100
C708        C  0.52503920  0.48943396  0.37343247     0.82700
N709        N  0.00110608  0.00426855  0.39305740    -0.79800
Zn710      Zn  0.78405150  0.24222164  0.48274975     1.49700
Zn711      Zn  0.70717667  0.25423331  0.48215853     1.49400
Zn712      Zn  0.75147417  0.28640382  0.42095813     1.49100
Zn713      Zn  0.74081528  0.20868446  0.42058214     1.49500
O714        O  0.74577323  0.24768014  0.45173885    -1.84200
O715        O  0.77125828  0.24014510  0.53584846    -0.74800
O716        O  0.68304889  0.29693723  0.46955621    -0.74700
O717        O  0.79171180  0.31115384  0.43383293    -0.74200
O718        O  0.71919304  0.25346293  0.53579184    -0.74900
O719        O  0.81472827  0.28052470  0.47645633    -0.74500
O720        O  0.71379737  0.31741993  0.42562900    -0.75000
O721        O  0.74190289  0.22118483  0.36675563    -0.74400
O722        O  0.67619612  0.21651647  0.47403038    -0.75200
O723        O  0.75480371  0.27420352  0.36823462    -0.74600
O724        O  0.69902231  0.18446035  0.43226552    -0.75100
O725        O  0.77827726  0.17734528  0.42840900    -0.75000
O726        O  0.80919274  0.20099131  0.47004016    -0.74700
C727        C  0.74505366  0.24622084  0.55283630     0.77000
C728        C  0.68868419  0.31896485  0.44559186     0.77500
C729        C  0.81459872  0.30590216  0.45605876     0.76500
C730        C  0.74932694  0.24792755  0.35047931     0.76900
C731        C  0.67584904  0.19082841  0.45409312     0.78000
C732        C  0.80367732  0.17758349  0.44790216     0.77100
C733        C  0.97268315  0.48133935  0.51692353     0.80100
N734        N  0.97298399  0.48200138  0.55374514    -0.78200
C735        C  0.48760143  0.00678238  0.57197526     0.82600
N736        N  0.50238150  0.03103039  0.55279574    -0.78100
C737        C  0.50273318  0.03048464  0.51583883     0.82700
N738        N  0.48777951  0.00555493  0.49779332    -0.79800
C739        C  0.52176367  0.05555928  0.49635324    -0.01400
C740        C  0.54419339  0.04638914  0.46971646    -0.09400
C741        C  0.56777370  0.06871364  0.45792116    -0.18200
C742        C  0.56936471  0.10094199  0.47259692     0.04200
C743        C  0.54432006  0.11085895  0.49674175     0.18300
C744        C  0.52103160  0.08817231  0.50845226    -0.19700
C745        C  0.54359306  0.14287047  0.51067327    -0.20900
C746        C  0.56828821  0.16484715  0.50288046    -0.19500
C747        C  0.59455673  0.15516694  0.48142861     0.19700
C748        C  0.59536824  0.12328191  0.46546587     0.01900
C749        C  0.62288073  0.11474898  0.44459053    -0.14200
C750        C  0.64868123  0.13674841  0.44046564    -0.11900
C751        C  0.64793100  0.16794293  0.45682689     0.01400
C752        C  0.62047385  0.17702764  0.47683084    -0.24100
H753        H  0.54485794  0.02129273  0.45976277     0.09400
H754        H  0.58497518  0.05978228  0.43825030     0.13000
H755        H  0.50320912  0.09543395  0.52855691     0.11700
H756        H  0.52422932  0.15069853  0.52855843     0.12900
H757        H  0.56737797  0.18923703  0.51477865     0.11900
H758        H  0.62550248  0.09098933  0.43190112     0.09000
H759        H  0.66957448  0.12900626  0.42491026     0.12300
H760        H  0.61943281  0.20108739  0.48953043     0.14100
C761        C  0.95531820  0.45444647  0.49879700    -0.01400
C762        C  0.93237810  0.46111578  0.47205367    -0.09400
C763        C  0.91118204  0.43644959  0.46053510    -0.18200
C764        C  0.91254311  0.40429594  0.47557605     0.04200
C765        C  0.93733773  0.39742210  0.50107190     0.18300
C766        C  0.95836262  0.42238418  0.51229229    -0.19700
C767        C  0.94006635  0.36611741  0.51667794    -0.20900
C768        C  0.91750630  0.34184188  0.50913597    -0.19500
C769        C  0.89179541  0.34825452  0.48566021     0.19700
C770        C  0.88944985  0.37918576  0.46762617     0.01900
C771        C  0.86342842  0.38394447  0.44347077    -0.14200
C772        C  0.83977513  0.35981466  0.43913834    -0.11900
C773        C  0.84123815  0.33011729  0.45853760     0.01400
C774        C  0.86785904  0.32418587  0.48099399    -0.24100
H775        H  0.92960497  0.48590511  0.46155412     0.09400
H776        H  0.89334539  0.44362970  0.44084903     0.13000
H777        H  0.97628900  0.41725759  0.53294380     0.11700
H778        H  0.95918566  0.36069569  0.53578835     0.12900
H779        H  0.91970877  0.31816330  0.52252838     0.11900
H780        H  0.86033098  0.40625676  0.42802416     0.09000
H781        H  0.81980666  0.36485272  0.42106131     0.12300
H782        H  0.86961539  0.30107119  0.49563624     0.14100
C783        C  0.66556165  0.34663386  0.43974753    -0.01400
C784        C  0.63810077  0.35083036  0.46168768    -0.09400
C785        C  0.61588737  0.37619895  0.45471223    -0.18200
C786        C  0.62024476  0.39805929  0.42510117     0.04200
C787        C  0.64815876  0.39361642  0.40304724     0.18300
C788        C  0.67045338  0.36854812  0.41076160    -0.19700
C789        C  0.65340140  0.41366769  0.37270096    -0.20900
C790        C  0.63096915  0.43740539  0.36292350    -0.19500
C791        C  0.60301347  0.44215206  0.38363363     0.19700
C792        C  0.59754191  0.42335818  0.41565416     0.01900
C793        C  0.56930221  0.43039477  0.43611768    -0.14200
C794        C  0.54646092  0.45339442  0.42377260    -0.11900
C795        C  0.55111211  0.46996030  0.39076125     0.01400
C796        C  0.58000516  0.46496175  0.37165231    -0.24100
H797        H  0.63357529  0.33425934  0.48419053     0.09400
H798        H  0.59516204  0.37766215  0.47241576     0.13000
H799        H  0.69139910  0.36561920  0.39333358     0.11700
H800        H  0.67465169  0.41041735  0.35583857     0.12900
H801        H  0.63533429  0.45188811  0.33865561     0.11900
H802        H  0.56396627  0.41803316  0.46136232     0.09000
H803        H  0.52446993  0.45706469  0.43923521     0.12300
H804        H  0.58419633  0.47817530  0.34645530     0.14100
C805        C  0.82755915  0.15049419  0.44373740    -0.01400
C806        C  0.81927022  0.12214032  0.42428269    -0.09400
C807        C  0.84204403  0.09767232  0.41711965    -0.18200
C808        C  0.87437351  0.10085625  0.42879187     0.04200
C809        C  0.88253442  0.12901157  0.44976639     0.18300
C810        C  0.85913419  0.15335672  0.45725785    -0.19700
C811        C  0.91422749  0.13315886  0.46215003    -0.20900
C812        C  0.93826307  0.11056141  0.45300620    -0.19500
C813        C  0.93128175  0.08329940  0.43112311     0.19700
C814        C  0.89906665  0.07775079  0.41924537     0.01900
C815        C  0.89324920  0.05011099  0.39687261    -0.14200
C816        C  0.91854279  0.03034555  0.38470421    -0.11900
C817        C  0.95030962  0.03670321  0.39513653     0.01400
C818        C  0.95651531  0.06244513  0.41944574    -0.24100
H819        H  0.79502488  0.11897541  0.41396985     0.09400
H820        H  0.83359272  0.07686463  0.40176067     0.13000
H821        H  0.86587714  0.17512005  0.47247685     0.11700
H822        H  0.92062868  0.15441435  0.47836534     0.12900
H823        H  0.96268569  0.11493872  0.46230981     0.11900
H824        H  0.86962564  0.04376931  0.38703158     0.09000
H825        H  0.91339289  0.01053438  0.36589037     0.12300
H826        H  0.98122837  0.06768761  0.42712007     0.14100
C827        C  0.75184617  0.24880995  0.31018387    -0.01400
C828        C  0.76595172  0.27594845  0.29263252    -0.09400
C829        C  0.76840287  0.27725077  0.25476558    -0.18200
C830        C  0.75650446  0.25138186  0.23289084     0.04200
C831        C  0.74216362  0.22394046  0.25080902     0.18300
C832        C  0.74016072  0.22281178  0.28895337    -0.19700
C833        C  0.72968712  0.19777922  0.23056523    -0.20900
C834        C  0.73093939  0.19825622  0.19286882    -0.19500
C835        C  0.74485205  0.22483258  0.17436535     0.19700
C836        C  0.75804803  0.25175043  0.19397974     0.01900
C837        C  0.77206795  0.27775736  0.17368942    -0.14200
C838        C  0.77262386  0.27708092  0.13564078    -0.11900
C839        C  0.75922180  0.25060120  0.11644610     0.01400
C840        C  0.74549093  0.22454088  0.13622207    -0.24100
H841        H  0.77535206  0.29637146  0.30826741     0.09400
H842        H  0.77956533  0.29891439  0.24344733     0.13000
H843        H  0.72909560  0.20173913  0.30211049     0.11700
H844        H  0.71870852  0.17681052  0.24399396     0.12900
H845        H  0.72089339  0.17763858  0.17804893     0.11900
H846        H  0.78278546  0.29896336  0.18640236     0.09000
H847        H  0.78345169  0.29756661  0.12122927     0.12300
H848        H  0.73517262  0.20375856  0.12191666     0.14100
C849        C  0.90841998  0.41925297  0.94808307    -0.01400
C850        C  0.90775235  0.38954656  0.92853613    -0.09400
C851        C  0.88340527  0.36610372  0.93478305    -0.18200
C852        C  0.85911526  0.37153204  0.96128900     0.04200
C853        C  0.85928909  0.40231890  0.97974180     0.18300
C854        C  0.88337458  0.42571244  0.97271810    -0.19700
C855        C  0.83618571  0.40928355  0.00638247    -0.20900
C856        C  0.81381073  0.38570680  0.01664277    -0.19500
C857        C  0.81374136  0.35467204  0.00027189     0.19700
C858        C  0.83556646  0.34726107  0.97151007     0.01900
C859        C  0.83348201  0.31551914  0.95554724    -0.14200
C860        C  0.81219777  0.29161898  0.96945426    -0.11900
C861        C  0.79257887  0.29869968  0.99954621     0.01400
C862        C  0.79275042  0.33058513  0.01382529    -0.24100
H863        H  0.92656942  0.38398599  0.90899713     0.09400
H864        H  0.88473935  0.34358204  0.91934677     0.13000
H865        H  0.88327796  0.44862387  0.98782371     0.11700
H866        H  0.83607987  0.43280296  0.02029273     0.12900
H867        H  0.79695130  0.39152375  0.03827468     0.11900
H868        H  0.84861697  0.30824101  0.93305808     0.09000
H869        H  0.81233608  0.26710291  0.95792577     0.12300
H870        H  0.77719923  0.33634629  0.03671628     0.14100
C871        C  0.60553969  0.07976316  0.95532137    -0.01400
C872        C  0.63124851  0.07017972  0.97761719    -0.09400
C873        C  0.65648654  0.09172498  0.98529089    -0.18200
C874        C  0.65689657  0.12409218  0.97114845     0.04200
C875        C  0.63204369  0.13318012  0.94658148     0.18300
C876        C  0.60657358  0.11112741  0.93904219    -0.19700
C877        C  0.63251737  0.16443233  0.93034328    -0.20900
C878        C  0.65660422  0.18714846  0.93880832    -0.19500
C879        C  0.68029851  0.17960069  0.96458284     0.19700
C880        C  0.68069367  0.14790218  0.98113659     0.01900
C881        C  0.70384198  0.14192182  0.00844994    -0.14200
C882        C  0.72483795  0.16660430  0.01971889    -0.11900
C883        C  0.72419801  0.19790731  0.00382428     0.01400
C884        C  0.70254646  0.20404514  0.97538681    -0.24100
H885        H  0.63172054  0.04588965  0.98979655     0.09400
H886        H  0.67528386  0.08225268  0.00253062     0.13000
H887        H  0.58715833  0.11874577  0.92125049     0.11700
H888        H  0.61393132  0.17149775  0.91121680     0.12900
H889        H  0.65600951  0.21119132  0.92606461     0.11900
H890        H  0.70539062  0.11892753  0.02293287     0.09000
H891        H  0.74119584  0.16142490  0.04191267     0.12300
H892        H  0.70146140  0.22845988  0.96353732     0.14100
C893        C  0.48841114  0.00638280  0.61228830    -0.01400
C894        C  0.47818651  0.47831961  0.63130482    -0.09400
C895        C  0.48009037  0.47679290  0.66906248    -0.18200
C896        C  0.49230797  0.00351069  0.68938667     0.04200
C897        C  0.00143311  0.03247248  0.67021586     0.18300
C898        C  0.99971549  0.03355729  0.63206181    -0.19700
C899        C  0.01232301  0.06013949  0.68924596    -0.20900
C900        C  0.01459179  0.05958551  0.72693885    -0.19500
C901        C  0.00670490  0.03112016  0.74652182     0.19700
C902        C  0.49573443  0.00254506  0.72799136     0.01900
C903        C  0.48919056  0.47407474  0.74886677    -0.14200
C904        C  0.49287084  0.47415991  0.78649330    -0.11900
C905        C  0.50302090  0.00254910  0.80484074     0.01400
C906        C  0.00994052  0.03098418  0.78455976    -0.24100
H907        H  0.46900461  0.45704332  0.61693942     0.09400
H908        H  0.47165512  0.45436507  0.68148727     0.13000
H909        H  0.00723463  0.05562997  0.61779029     0.11700
H910        H  0.01907850  0.08240640  0.67487924     0.12900
H911        H  0.02299070  0.08146900  0.74084160     0.11900
H912        H  0.48152801  0.45117338  0.73695406     0.09000
H913        H  0.48743554  0.45177217  0.80131218     0.12300
H914        H  0.01800920  0.05306756  0.79834571     0.14100
C915        C  0.49950640  0.00694906  0.27868448    -0.01400
C916        C  0.97103106  0.01405613  0.25980899    -0.09400
C917        C  0.97024687  0.01294503  0.22188561    -0.18200
C918        C  0.49817956  0.00487865  0.20151974     0.04200
C919        C  0.52730416  0.49916181  0.22080350     0.18300
C920        C  0.52761712  0.49986660  0.25888175    -0.19700
C921        C  0.55602373  0.49271588  0.20202121    -0.20900
C922        C  0.55647831  0.49167397  0.16433454    -0.19500
C923        C  0.52808975  0.49630344  0.14453232     0.19700
C924        C  0.49840798  0.00252559  0.16279591     0.01900
C925        C  0.97026193  0.00570409  0.14148767    -0.14200
C926        C  0.97176196  0.00388725  0.10366353    -0.11900
C927        C  0.50126567  0.99888751  0.08573297     0.01400
C928        C  0.52927615  0.49474072  0.10647526    -0.24100
H929        H  0.94904138  0.01994964  0.27440965     0.09400
H930        H  0.94748368  0.01871423  0.20931885     0.13000
H931        H  0.54996329  0.49497546  0.27313793     0.11700
H932        H  0.57834941  0.48860644  0.21658611     0.12900
H933        H  0.57916826  0.48687729  0.15058541     0.11900
H934        H  0.94668350  0.00938561  0.15323257     0.09000
H935        H  0.94963830  0.00671255  0.08839531     0.12300
H936        H  0.55220882  0.49049464  0.09299769     0.14100
C937        C  0.74885205  0.24187306  0.78685983    -0.01400
C938        C  0.72184009  0.25513702  0.76921148    -0.09400
C939        C  0.71973263  0.25547399  0.73142127    -0.18200
C940        C  0.74475796  0.24249506  0.70954179     0.04200
C941        C  0.77191939  0.22849293  0.72738752     0.18300
C942        C  0.77368936  0.22818940  0.76562612    -0.19700
C943        C  0.79734428  0.21525400  0.70692744    -0.20900
C944        C  0.79664155  0.21610412  0.66914077    -0.19500
C945        C  0.77044202  0.23008575  0.65076034     0.19700
C946        C  0.74394706  0.24321620  0.67066843     0.01900
C947        C  0.71792682  0.25668335  0.65073666    -0.14200
C948        C  0.71834715  0.25734703  0.61280030    -0.11900
C949        C  0.74469295  0.24485832  0.59322249     0.01400
C950        C  0.77064449  0.23113823  0.61252783    -0.24100
H951        H  0.70211432  0.26572817  0.78465205     0.09400
H952        H  0.69826064  0.26638293  0.72023066     0.13000
H953        H  0.79467808  0.21768668  0.77878587     0.11700
H954        H  0.81808444  0.20442467  0.72025192     0.12900
H955        H  0.81686390  0.20587921  0.65416167     0.11900
H956        H  0.69683733  0.26699023  0.66359658     0.09000
H957        H  0.69796034  0.26805687  0.59873277     0.12300
H958        H  0.79110616  0.22111830  0.59777096     0.14100
C959        C  0.92902475  0.10219361  0.94205565    -0.01400
C960        C  0.93664097  0.12920371  0.91991126    -0.09400
C961        C  0.91453412  0.15469274  0.91453357    -0.18200
C962        C  0.88361122  0.15395958  0.93089236     0.04200
C963        C  0.87656487  0.12750027  0.95495431     0.18300
C964        C  0.89926391  0.10212741  0.96048589    -0.19700
C965        C  0.84639559  0.12582360  0.97214984    -0.20900
C966        C  0.82237738  0.14877294  0.96434848    -0.19500
C967        C  0.82788865  0.17394444  0.93907033     0.19700
C968        C  0.85892009  0.17750130  0.92280375     0.01900
C969        C  0.86328088  0.20333913  0.89749099    -0.14200
C970        C  0.83728473  0.22253151  0.88613649    -0.11900
C971        C  0.80638894  0.21749335  0.90042422     0.01400
C972        C  0.80207765  0.19434045  0.92825391    -0.24100
H973        H  0.95958676  0.13032347  0.90581115     0.09400
H974        H  0.92215559  0.17419105  0.89659271     0.13000
H975        H  0.89315099  0.08161731  0.97808460     0.11700
H976        H  0.84096527  0.10597645  0.99089475     0.12900
H977        H  0.79894266  0.14608576  0.97717294     0.11900
H978        H  0.88613873  0.20841935  0.88465299     0.09000
H979        H  0.84109110  0.24068774  0.86497521     0.12300
H980        H  0.77811657  0.19039898  0.93936783     0.14100
C981        C  0.70150690  0.27721873  0.90194150    -0.01400
C982        C  0.67043663  0.27399306  0.88766766    -0.09400
C983        C  0.64571428  0.29514038  0.89812002    -0.18200
C984        C  0.65138624  0.32106637  0.92282167     0.04200
C985        C  0.68222171  0.32267449  0.93966889     0.18300
C986        C  0.70695977  0.30050742  0.92940502    -0.19700
C987        C  0.68854766  0.34750293  0.96508580    -0.20900
C988        C  0.66558134  0.37178396  0.97254808    -0.19500
C989        C  0.63578818  0.37203191  0.95457961     0.19700
C990        C  0.62806174  0.34622183  0.93003101     0.01900
C991        C  0.59787845  0.34754867  0.91233920    -0.14200
C992        C  0.57688449  0.37391400  0.91754340    -0.11900
C993        C  0.58478474  0.39996128  0.94078999     0.01400
C994        C  0.61407082  0.39845120  0.95998228    -0.24100
H995        H  0.66552428  0.25569287  0.86700338     0.09400
H996        H  0.62273768  0.29114667  0.88526586     0.13000
H997        H  0.73096005  0.30303686  0.94070873     0.11700
H998        H  0.71176487  0.34871900  0.97848814     0.12900
H999        H  0.67158108  0.39111035  0.99165009     0.11900
H1000       H  0.58994423  0.32901207  0.89346427     0.09000
H1001       H  0.55437908  0.37403667  0.90267075     0.12300
H1002       H  0.62046617  0.41832114  0.97824233     0.14100
C1003       C  0.77848467  0.73270618  0.88212122     0.80100
N1004       N  0.77680714  0.73094472  0.84522010    -0.78200
C1005       C  0.75095523  0.74322619  0.82719688     0.82600
N1006       N  0.72692678  0.75754937  0.84654262    -0.78100
C1007       C  0.72824508  0.75995116  0.88326195     0.82700
N1008       N  0.75415071  0.74737196  0.90129405    -0.79800
Zn1009     Zn  0.96690252  0.50571857  0.97423113     1.49700
Zn1010     Zn  0.54395586  0.49429961  0.97712251     1.49400
Zn1011     Zn  0.50139284  0.96169291  0.91451708     1.49100
Zn1012     Zn  0.51302144  0.54065627  0.91569719     1.49500
O1013       O  0.50642029  0.50069753  0.94534218    -1.84200
O1014       O  0.97721029  0.50392608  0.02746541    -0.74800
O1015       O  0.56800896  0.95155060  0.96650067    -0.74700
O1016       O  0.95978547  0.93642072  0.92441095    -0.74200
O1017       O  0.52991321  0.49407489  0.02971710    -0.74900
O1018       O  0.93557508  0.96870873  0.96462375    -0.74500
O1019       O  0.53834969  0.93012301  0.92239167    -0.75000
O1020       O  0.51143688  0.52911786  0.86199797    -0.74400
O1021       O  0.57558274  0.53172785  0.97082556    -0.75200
O1022       O  0.50112719  0.97535438  0.86200614    -0.74600
O1023       O  0.55550663  0.56383391  0.92759623    -0.75100
O1024       O  0.97698862  0.57349785  0.92480710    -0.75000
O1025       O  0.94426669  0.54905085  0.96427452    -0.74700
C1026       C  0.50288060  0.49878386  0.04552814     0.77000
C1027       C  0.56259883  0.92871915  0.94357170     0.77500
C1028       C  0.93590337  0.94277352  0.94514001     0.76500
C1029       C  0.50555265  0.50237590  0.84505062     0.76900
C1030       C  0.57746575  0.55725039  0.95071458     0.78000
C1031       C  0.95137345  0.57353120  0.94410872     0.77100
C1032       C  0.74269773  0.72469304  0.02125529     0.80100
N1033       N  0.74340892  0.72571743  0.05811195    -0.78200
C1034       C  0.75920352  0.74994637  0.07599088     0.82600
N1035       N  0.77469259  0.77342244  0.05637461    -0.78100
C1036       C  0.77468629  0.77270570  0.01937679     0.82700
N1037       N  0.75849570  0.74826749  0.00167709    -0.81800
C1038       C  0.97667033  0.52009804  0.37541704     0.80100
N1039       N  0.97613912  0.52070214  0.33851912    -0.78200
C1040       C  0.50002110  0.00638287  0.31890801     0.82600
N1041       N  0.52426096  0.99087900  0.33659186    -0.78100
C1042       C  0.52503920  0.98943391  0.37343246     0.82700
N1043       N  0.00110609  0.50426845  0.39305740    -0.79800
Zn1044     Zn  0.78405161  0.74222169  0.48274978     1.49700
Zn1045     Zn  0.70717666  0.75423331  0.48215855     1.49400
Zn1046     Zn  0.75147421  0.78640374  0.42095815     1.49100
Zn1047     Zn  0.74081533  0.70868445  0.42058216     1.49500
O1048       O  0.74577327  0.74768008  0.45173890    -1.84200
O1049       O  0.77125830  0.74014514  0.53584848    -0.74800
O1050       O  0.68304886  0.79693718  0.46955618    -0.74700
O1051       O  0.79171191  0.81115383  0.43383290    -0.74200
O1052       O  0.71919300  0.75346280  0.53579187    -0.74900
O1053       O  0.81472828  0.78052485  0.47645650    -0.74500
O1054       O  0.71379743  0.81741987  0.42562905    -0.75000
O1055       O  0.74190308  0.72118487  0.36675566    -0.74400
O1056       O  0.67619620  0.71651645  0.47403041    -0.75200
O1057       O  0.75480372  0.77420360  0.36823463    -0.74600
O1058       O  0.69902243  0.68446030  0.43226562    -0.75100
O1059       O  0.77827732  0.67734521  0.42840909    -0.75000
O1060       O  0.80919290  0.70099135  0.47004009    -0.74700
C1061       C  0.74505364  0.74622080  0.55283633     0.77000
C1062       C  0.68868423  0.81896481  0.44559186     0.77500
C1063       C  0.81459878  0.80590224  0.45605883     0.76500
C1064       C  0.74932702  0.74792760  0.35047933     0.76900
C1065       C  0.67584916  0.69082836  0.45409317     0.78000
C1066       C  0.80367743  0.67758347  0.44790217     0.77100
C1067       C  0.97268315  0.98133946  0.51692354     0.80100
N1068       N  0.97298399  0.98200151  0.55374515    -0.78200
C1069       C  0.48760151  0.50678243  0.57197527     0.82600
N1070       N  0.50238159  0.53103039  0.55279571    -0.78100
C1071       C  0.50273323  0.53048467  0.51583881     0.82700
N1072       N  0.48777950  0.50555496  0.49779333    -0.79800
C1073       C  0.52176369  0.55555931  0.49635319    -0.01400
C1074       C  0.54419350  0.54638911  0.46971650    -0.09400
C1075       C  0.56777383  0.56871360  0.45792125    -0.18200
C1076       C  0.56936488  0.60094196  0.47259697     0.04200
C1077       C  0.54432018  0.61085895  0.49674174     0.18300
C1078       C  0.52103163  0.58817236  0.50845216    -0.19700
C1079       C  0.54359317  0.64287048  0.51067322    -0.20900
C1080       C  0.56828825  0.66484720  0.50288025    -0.19500
C1081       C  0.59455683  0.65516697  0.48142853     0.19700
C1082       C  0.59536841  0.62328188  0.46546590     0.01900
C1083       C  0.62288094  0.61474895  0.44459060    -0.14200
C1084       C  0.64868138  0.63674840  0.44046567    -0.11900
C1085       C  0.64793112  0.66794294  0.45682690     0.01400
C1086       C  0.62047393  0.67702764  0.47683077    -0.24100
H1087       H  0.54485807  0.52129269  0.45976289     0.09400
H1088       H  0.58497538  0.55978221  0.43825039     0.13000
H1089       H  0.50320908  0.59543407  0.52855674     0.11700
H1090       H  0.52422945  0.65069854  0.52855835     0.12900
H1091       H  0.56737793  0.68923715  0.51477829     0.11900
H1092       H  0.62550272  0.59098926  0.43190125     0.09000
H1093       H  0.66957469  0.62900625  0.42491032     0.12300
H1094       H  0.61943285  0.70108745  0.48953040     0.14100
C1095       C  0.95531823  0.95444657  0.49879700    -0.01400
C1096       C  0.93237813  0.96111585  0.47205370    -0.09400
C1097       C  0.91118210  0.93644966  0.46053507    -0.18200
C1098       C  0.91254318  0.90429599  0.47557606     0.04200
C1099       C  0.93733777  0.89742218  0.50107191     0.18300
C1100       C  0.95836270  0.92238425  0.51229225    -0.19700
C1101       C  0.94006639  0.86611748  0.51667798    -0.20900
C1102       C  0.91750633  0.84184194  0.50913601    -0.19500
C1103       C  0.89179546  0.84825458  0.48566026     0.19700
C1104       C  0.88944993  0.87918581  0.46762616     0.01900
C1105       C  0.86342851  0.88394451  0.44347080    -0.14200
C1106       C  0.83977522  0.85981470  0.43913834    -0.11900
C1107       C  0.84123822  0.83011735  0.45853765     0.01400
C1108       C  0.86785905  0.82418596  0.48099413    -0.24100
H1109       H  0.92960497  0.98590523  0.46155415     0.09400
H1110       H  0.89334552  0.94362973  0.44084898     0.13000
H1111       H  0.97628913  0.91725766  0.53294369     0.11700
H1112       H  0.95918568  0.86069575  0.53578834     0.12900
H1113       H  0.91970879  0.81816339  0.52252844     0.11900
H1114       H  0.86033104  0.90625687  0.42802425     0.09000
H1115       H  0.81980677  0.86485277  0.42106134     0.12300
H1116       H  0.86961531  0.80107136  0.49563653     0.14100
C1117       C  0.66556169  0.84663382  0.43974756    -0.01400
C1118       C  0.63810078  0.85083028  0.46168763    -0.09400
C1119       C  0.61588733  0.87619884  0.45471219    -0.18200
C1120       C  0.62024477  0.89805924  0.42510118     0.04200
C1121       C  0.64815882  0.89361643  0.40304733     0.18300
C1122       C  0.67045347  0.86854812  0.41076167    -0.19700
C1123       C  0.65340151  0.91366770  0.37270107    -0.20900
C1124       C  0.63096921  0.93740532  0.36292352    -0.19500
C1125       C  0.60301352  0.94215203  0.38363366     0.19700
C1126       C  0.59754194  0.92335814  0.41565419     0.01900
C1127       C  0.56930220  0.93039473  0.43611765    -0.14200
C1128       C  0.54646095  0.95339442  0.42377261    -0.11900
C1129       C  0.55111213  0.96996029  0.39076126     0.01400
C1130       C  0.58000518  0.96496168  0.37165229    -0.24100
H1131       H  0.63357528  0.83425922  0.48419050     0.09400
H1132       H  0.59516198  0.87766201  0.47241567     0.13000
H1133       H  0.69139917  0.86561923  0.39333370     0.11700
H1134       H  0.67465182  0.91041739  0.35583874     0.12900
H1135       H  0.63533435  0.95188794  0.33865557     0.11900
H1136       H  0.56396621  0.91803304  0.46136227     0.09000
H1137       H  0.52446992  0.95706473  0.43923524     0.12300
H1138       H  0.58419629  0.97817513  0.34645521     0.14100
C1139       C  0.82755929  0.65049420  0.44373740    -0.01400
C1140       C  0.81927036  0.62214032  0.42428268    -0.09400
C1141       C  0.84204416  0.59767232  0.41711969    -0.18200
C1142       C  0.87437363  0.60085625  0.42879183     0.04200
C1143       C  0.88253457  0.62901161  0.44976631     0.18300
C1144       C  0.85913434  0.65335674  0.45725778    -0.19700
C1145       C  0.91422765  0.63315891  0.46214983    -0.20900
C1146       C  0.93826321  0.61056140  0.45300609    -0.19500
C1147       C  0.93128185  0.58329939  0.43112300     0.19700
C1148       C  0.89906675  0.57775080  0.41924525     0.01900
C1149       C  0.89324929  0.55011097  0.39687254    -0.14200
C1150       C  0.91854283  0.53034548  0.38470420    -0.11900
C1151       C  0.95030966  0.53670313  0.39513651     0.01400
C1152       C  0.95651537  0.56244506  0.41944570    -0.24100
H1153       H  0.79502506  0.61897543  0.41396980     0.09400
H1154       H  0.83359283  0.57686458  0.40176068     0.13000
H1155       H  0.86587733  0.67512014  0.47247673     0.11700
H1156       H  0.92062888  0.65441447  0.47836507     0.12900
H1157       H  0.96268579  0.61493860  0.46230972     0.11900
H1158       H  0.86962567  0.54376923  0.38703154     0.09000
H1159       H  0.91339291  0.51053425  0.36589045     0.12300
H1160       H  0.98122844  0.56768749  0.42712012     0.14100
C1161       C  0.75184623  0.74881000  0.31018390    -0.01400
C1162       C  0.76595175  0.77594851  0.29263257    -0.09400
C1163       C  0.76840285  0.77725085  0.25476563    -0.18200
C1164       C  0.75650443  0.75138194  0.23289088     0.04200
C1165       C  0.74216367  0.72394052  0.25080904     0.18300
C1166       C  0.74016079  0.72281179  0.28895340    -0.19700
C1167       C  0.72968728  0.69777919  0.23056526    -0.20900
C1168       C  0.73093959  0.69825620  0.19286884    -0.19500
C1169       C  0.74485207  0.72483262  0.17436538     0.19700
C1170       C  0.75804799  0.75175052  0.19397978     0.01900
C1171       C  0.77206791  0.77775744  0.17368948    -0.14200
C1172       C  0.77262383  0.77708101  0.13564083    -0.11900
C1173       C  0.75922176  0.75060127  0.11644615     0.01400
C1174       C  0.74549092  0.72454095  0.13622211    -0.24100
H1175       H  0.77535211  0.79637150  0.30826745     0.09400
H1176       H  0.77956529  0.79891450  0.24344741     0.13000
H1177       H  0.72909577  0.70173913  0.30211048     0.11700
H1178       H  0.71870881  0.67681049  0.24399398     0.12900
H1179       H  0.72089373  0.67763846  0.17804895     0.11900
H1180       H  0.78278542  0.79896343  0.18640245     0.09000
H1181       H  0.78345166  0.79756667  0.12122933     0.12300
H1182       H  0.73517266  0.70375857  0.12191666     0.14100
C1183       C  0.90841993  0.91925301  0.94808309    -0.01400
C1184       C  0.90775232  0.88954660  0.92853612    -0.09400
C1185       C  0.88340524  0.86610375  0.93478304    -0.18200
C1186       C  0.85911523  0.87153204  0.96128897     0.04200
C1187       C  0.85928899  0.90231896  0.97974172     0.18300
C1188       C  0.88337450  0.92571245  0.97271806    -0.19700
C1189       C  0.83618553  0.90928363  0.00638229    -0.20900
C1190       C  0.81381065  0.88570685  0.01664271    -0.19500
C1191       C  0.81374133  0.85467207  0.00027188     0.19700
C1192       C  0.83556644  0.84726107  0.97151007     0.01900
C1193       C  0.83348201  0.81551910  0.95554730    -0.14200
C1194       C  0.81219771  0.79161898  0.96945430    -0.11900
C1195       C  0.79257881  0.79869972  0.99954626     0.01400
C1196       C  0.79275038  0.83058517  0.01382531    -0.24100
H1197       H  0.92656939  0.88398604  0.90899718     0.09400
H1198       H  0.88473934  0.84358205  0.91934675     0.13000
H1199       H  0.88327784  0.94862394  0.98782372     0.11700
H1200       H  0.83607959  0.93280311  0.02029246     0.12900
H1201       H  0.79695125  0.89152379  0.03827465     0.11900
H1202       H  0.84861705  0.80824092  0.93305819     0.09000
H1203       H  0.81233599  0.76710291  0.95792584     0.12300
H1204       H  0.77719920  0.83634637  0.03671629     0.14100
C1205       C  0.60553970  0.57976323  0.95532138    -0.01400
C1206       C  0.63124849  0.57017978  0.97761726    -0.09400
C1207       C  0.65648653  0.59172502  0.98529099    -0.18200
C1208       C  0.65689661  0.62409221  0.97114851     0.04200
C1209       C  0.63204377  0.63318013  0.94658146     0.18300
C1210       C  0.60657367  0.61112745  0.93904214    -0.19700
C1211       C  0.63251753  0.66443231  0.93034319    -0.20900
C1212       C  0.65660432  0.68714841  0.93880828    -0.19500
C1213       C  0.68029859  0.67960067  0.96458283     0.19700
C1214       C  0.68069371  0.64790217  0.98113665     0.01900
C1215       C  0.70384194  0.64192185  0.00845009    -0.14200
C1216       C  0.72483796  0.66660432  0.01971899    -0.11900
C1217       C  0.72419804  0.69790732  0.00382431     0.01400
C1218       C  0.70254649  0.70404511  0.97538684    -0.24100
H1219       H  0.63172046  0.54588974  0.98979664     0.09400
H1220       H  0.67528384  0.58225270  0.00253071     0.13000
H1221       H  0.58715846  0.61874581  0.92125037     0.11700
H1222       H  0.61393149  0.67149772  0.91121665     0.12900
H1223       H  0.65600958  0.71119134  0.92606457     0.11900
H1224       H  0.70539047  0.61892761  0.02293317     0.09000
H1225       H  0.74119578  0.66142495  0.04191278     0.12300
H1226       H  0.70146138  0.72845987  0.96353731     0.14100
C1227       C  0.48841122  0.50638287  0.61228830    -0.01400
C1228       C  0.47818658  0.97831942  0.63130479    -0.09400
C1229       C  0.48009043  0.97679276  0.66906248    -0.18200
C1230       C  0.49230801  0.50351081  0.68938667     0.04200
C1231       C  0.00143313  0.53247237  0.67021586     0.18300
C1232       C  0.99971546  0.53355721  0.63206180    -0.19700
C1233       C  0.01232296  0.56013942  0.68924596    -0.20900
C1234       C  0.01459182  0.55958540  0.72693886    -0.19500
C1235       C  0.00670506  0.53112000  0.74652180     0.19700
C1236       C  0.49573438  0.50254518  0.72799136     0.01900
C1237       C  0.48919075  0.97407458  0.74886675    -0.14200
C1238       C  0.49287103  0.97415975  0.78649327    -0.11900
C1239       C  0.50302084  0.50254922  0.80484077     0.01400
C1240       C  0.00994065  0.53098404  0.78455974    -0.24100
H1241       H  0.46900488  0.95704312  0.61693941     0.09400
H1242       H  0.47165523  0.95436487  0.68148729     0.13000
H1243       H  0.00723458  0.55562988  0.61779029     0.11700
H1244       H  0.01907833  0.58240634  0.67487928     0.12900
H1245       H  0.02299062  0.58146890  0.74084161     0.11900
H1246       H  0.48152828  0.95117319  0.73695404     0.09000
H1247       H  0.48743581  0.95177198  0.80131215     0.12300
H1248       H  0.01800937  0.55306743  0.79834567     0.14100
C1249       C  0.49950635  0.50694911  0.27868450    -0.01400
C1250       C  0.97103115  0.51405602  0.25980900    -0.09400
C1251       C  0.97024693  0.51294493  0.22188561    -0.18200
C1252       C  0.49817951  0.50487875  0.20151975     0.04200
C1253       C  0.52730423  0.99916173  0.22080347     0.18300
C1254       C  0.52761719  0.99986660  0.25888174    -0.19700
C1255       C  0.55602378  0.99271582  0.20202114    -0.20900
C1256       C  0.55647836  0.99167398  0.16433446    -0.19500
C1257       C  0.52808977  0.99630342  0.14453228     0.19700
C1258       C  0.49840796  0.50252564  0.16279593     0.01900
C1259       C  0.97026202  0.50570408  0.14148768    -0.14200
C1260       C  0.97176204  0.50388718  0.10366352    -0.11900
C1261       C  0.50126566  0.49888766  0.08573301     0.01400
C1262       C  0.52927615  0.99474060  0.10647522    -0.24100
H1263       H  0.94904143  0.51994942  0.27440965     0.09400
H1264       H  0.94748377  0.51871403  0.20931888     0.13000
H1265       H  0.54996340  0.99497556  0.27313793     0.11700
H1266       H  0.57834951  0.98860635  0.21658603     0.12900
H1267       H  0.57916827  0.98687733  0.15058526     0.11900
H1268       H  0.94668363  0.50938569  0.15323253     0.09000
H1269       H  0.94963842  0.50671243  0.08839532     0.12300
H1270       H  0.55220881  0.99049447  0.09299767     0.14100
C1271       C  0.74885212  0.74187294  0.78685989    -0.01400
C1272       C  0.72184019  0.75513690  0.76921151    -0.09400
C1273       C  0.71973277  0.75547399  0.73142131    -0.18200
C1274       C  0.74475807  0.74249503  0.70954183     0.04200
C1275       C  0.77191947  0.72849285  0.72738756     0.18300
C1276       C  0.77368944  0.72818929  0.76562618    -0.19700
C1277       C  0.79734438  0.71525393  0.70692746    -0.20900
C1278       C  0.79664155  0.71610406  0.66914078    -0.19500
C1279       C  0.77044208  0.73008575  0.65076037     0.19700
C1280       C  0.74394714  0.74321624  0.67066848     0.01900
C1281       C  0.71792693  0.75668347  0.65073671    -0.14200
C1282       C  0.71834722  0.75734715  0.61280033    -0.11900
C1283       C  0.74469299  0.74485835  0.59322252     0.01400
C1284       C  0.77064452  0.73113828  0.61252786    -0.24100
H1285       H  0.70211440  0.76572808  0.78465207     0.09400
H1286       H  0.69826088  0.76638307  0.72023067     0.13000
H1287       H  0.79467817  0.71768662  0.77878594     0.11700
H1288       H  0.81808452  0.70442463  0.72025187     0.12900
H1289       H  0.81686388  0.70587908  0.65416161     0.11900
H1290       H  0.69683745  0.76699038  0.66359661     0.09000
H1291       H  0.69796045  0.76805699  0.59873283     0.12300
H1292       H  0.79110620  0.72111831  0.59777094     0.14100
C1293       C  0.92902484  0.60219362  0.94205565    -0.01400
C1294       C  0.93664102  0.62920369  0.91991116    -0.09400
C1295       C  0.91453413  0.65469265  0.91453337    -0.18200
C1296       C  0.88361129  0.65395955  0.93089226     0.04200
C1297       C  0.87656498  0.62750031  0.95495430     0.18300
C1298       C  0.89926402  0.60212746  0.96048593    -0.19700
C1299       C  0.84639572  0.62582367  0.97214989    -0.20900
C1300       C  0.82237752  0.64877302  0.96434852    -0.19500
C1301       C  0.82788879  0.67394450  0.93907035     0.19700
C1302       C  0.85892021  0.67750129  0.92280368     0.01900
C1303       C  0.86328097  0.70333907  0.89749085    -0.14200
C1304       C  0.83728486  0.72253149  0.88613643    -0.11900
C1305       C  0.80638906  0.71749340  0.90042424     0.01400
C1306       C  0.80207780  0.69434051  0.92825394    -0.24100
H1307       H  0.95958677  0.63032345  0.90581104     0.09400
H1308       H  0.92215555  0.67419088  0.89659238     0.13000
H1309       H  0.89315110  0.58161741  0.97808472     0.11700
H1310       H  0.84096539  0.60597656  0.99089484     0.12900
H1311       H  0.79894280  0.64608587  0.97717299     0.11900
H1312       H  0.88613882  0.70841922  0.88465268     0.09000
H1313       H  0.84109124  0.74068772  0.86497514     0.12300
H1314       H  0.77811674  0.69039906  0.93936791     0.14100
C1315       C  0.70150695  0.77721871  0.90194154    -0.01400
C1316       C  0.67043665  0.77399306  0.88766767    -0.09400
C1317       C  0.64571434  0.79514044  0.89812002    -0.18200
C1318       C  0.65138630  0.82106640  0.92282165     0.04200
C1319       C  0.68222179  0.82267450  0.93966891     0.18300
C1320       C  0.70695982  0.80050742  0.92940499    -0.19700
C1321       C  0.68854770  0.84750291  0.96508585    -0.20900
C1322       C  0.66558138  0.87178395  0.97254807    -0.19500
C1323       C  0.63578822  0.87203193  0.95457960     0.19700
C1324       C  0.62806178  0.84622185  0.93003100     0.01900
C1325       C  0.59787848  0.84754869  0.91233922    -0.14200
C1326       C  0.57688450  0.87391400  0.91754341    -0.11900
C1327       C  0.58478475  0.89996128  0.94079003     0.01400
C1328       C  0.61407083  0.89845119  0.95998227    -0.24100
H1329       H  0.66552427  0.75569292  0.86700342     0.09400
H1330       H  0.62273773  0.79114673  0.88526585     0.13000
H1331       H  0.73096019  0.80303686  0.94070864     0.11700
H1332       H  0.71176489  0.84871896  0.97848825     0.12900
H1333       H  0.67158112  0.89111037  0.99165006     0.11900
H1334       H  0.58994425  0.82901205  0.89346429     0.09000
H1335       H  0.55437910  0.87403667  0.90267074     0.12300
H1336       H  0.62046618  0.91832118  0.97824232     0.14100
loop_ 
_geom_bond_atom_site_label_1 
_geom_bond_atom_site_label_2 
_geom_bond_distance 
_geom_bond_site_symmetry_2 
_ccdc_geom_bond_type 
C1            N2   1.363       .  A
C1            N6   1.365       .  A
C1          C303   1.475       .  S
N2            C3   1.357       .  A
C3            N4   1.353       .  A
C3          C269   1.489       .  S
N4            C5   1.357       .  A
C5            N6   1.363       .  A
C5          C313   1.479       .  S
Zn7          O12   2.009   1_556  S
Zn7          O23   2.026       .  S
Zn7         O350   2.019   1_545  S
Zn7         O679   1.961       .  S
Zn8          O15   2.021   1_556  S
Zn8          O19   2.020   1_565  S
Zn8         O347   2.038       .  S
Zn8          O11   1.967   1_565  S
Zn9          O17   2.018       .  S
Zn9          O20   2.011       .  S
Zn9         O682   2.039   1_455  S
Zn9         O345   1.961       .  S
Zn10         O18   2.034       .  S
Zn10         O21   2.046       .  S
Zn10        O690   2.028   1_455  S
Zn10         O11   1.973       .  S
O11        Zn675   1.961   1_455  S
O11        Zn343   1.961   1_545  S
O12         C692   1.274   1_545  A
O13        Zn342   2.038       .  S
O13          C25   1.275       .  A
O14        Zn677   2.039       .  S
O14          C26   1.274       .  A
O15          C24   1.275       .  A
O16        Zn341   2.019       .  S
O16          C26   1.275       .  A
O17          C25   1.275       .  A
O18          C27   1.277       .  A
O19          C28   1.275       .  A
O20         C361   1.275       .  A
O21          C28   1.276       .  A
O22        Zn678   2.028       .  S
O22          C29   1.276       .  A
O23          C29   1.274       .  A
C24         C259   1.482       .  S
C24         O680   1.274   1_465  A
C25         C325   1.489       .  S
C26         C181   1.491       .  S
C27         C237   1.485       .  S
C27         O354   1.275   1_545  A
C28         C203   1.490       .  S
C29         C291   1.488       .  S
C30          N31   1.358       .  A
C30          N35   1.364       .  A
C30         C215   1.479       .  S
N31          C32   1.354       .  A
C32          N33   1.356       .  A
C32         C171   1.490       .  S
N33          C34   1.363       .  A
C34          N35   1.365       .  A
C34         C193   1.481   1_554  S
C36          N37   1.359       .  A
C36          N41   1.365       .  A
C36         C149   1.473       .  S
N37        C1040   1.354       .  A
C38          N39   1.353       .  A
C38        N1039   1.354   1_455  A
C38         C581   1.482   1_455  S
N39          C40   1.358       .  A
C40        N1043   1.365       .  A
C40         C127   1.484       .  S
N41        C1042   1.365   1_545  A
Zn42         O47   2.026       .  S
Zn42         O51   2.022       .  S
Zn42         O58   2.025       .  S
Zn42         O46   1.970       .  S
Zn43         O48   2.054       .  S
Zn43         O50   2.039       .  S
Zn43         O54   2.022       .  S
Zn43         O46   1.968       .  S
Zn44         O49   2.006       .  S
Zn44         O52   2.012       .  S
Zn44         O55   2.008       .  S
Zn44         O46   1.952       .  S
Zn45         O53   2.046       .  S
Zn45         O56   2.037       .  S
Zn45         O57   2.027       .  S
Zn45         O46   1.967       .  S
O47          C59   1.275       .  A
O48          C60   1.277       .  A
O49          C61   1.273       .  A
O50          C59   1.278       .  A
O51          C61   1.275       .  A
O52          C60   1.274       .  A
O53          C62   1.277       .  A
O54          C63   1.276       .  A
O55          C62   1.273       .  A
O56          C63   1.277       .  A
O57          C64   1.276       .  A
O58          C64   1.274       .  A
C59         C281   1.488       .  S
C60         C115   1.492       .  S
C61         C105   1.482       .  S
C62         C159   1.488       .  S
C63          C83   1.488       .  S
C64         C137   1.486       .  S
C65          N66   1.356       .  A
C65        N1072   1.361       .  A
C65          C93   1.470       .  S
N66        C1069   1.354       .  A
C67          N68   1.357   1_655  A
C67        N1068   1.354   1_545  A
C67         C225   1.485       .  S
N68          C69   1.361       .  A
C69          N70   1.362   1_455  A
C69          C71   1.473       .  S
N70        C1067   1.361   1_545  A
C71          C72   1.399       .  A
C71          C76   1.397       .  A
C72          C73   1.401       .  A
C72          H85   1.083       .  S
C73          C74   1.418       .  A
C73          H86   1.077       .  S
C74          C80   1.433       .  A
C74          C75   1.422       .  A
C75          C77   1.398       .  A
C75          C76   1.402       .  A
C76          H87   1.085       .  S
C77          C78   1.388       .  A
C77          H88   1.084       .  S
C78          C79   1.399       .  A
C78          H89   1.084       .  S
C79          C80   1.422       .  A
C79          C84   1.404       .  A
C80          C81   1.416       .  A
C81          C82   1.402       .  A
C81          H90   1.077       .  S
C82          C83   1.403       .  A
C82          H91   1.083       .  S
C83          C84   1.403       .  A
C84          H92   1.084       .  S
C93          C94   1.397       .  A
C93          C98   1.399       .  A
C94          C95   1.400       .  A
C94         H107   1.084       .  S
C95          C96   1.419       .  A
C95         H108   1.077       .  S
C96         C102   1.430       .  A
C96          C97   1.422       .  A
C97          C99   1.399       .  A
C97          C98   1.401       .  A
C98         H109   1.085       .  S
C99         C100   1.388       .  A
C99         H110   1.084       .  S
C100        C101   1.398       .  A
C100        H111   1.084       .  S
C101        C102   1.423       .  A
C101        C106   1.404       .  A
C102        C103   1.413       .  A
C103        C104   1.396       .  A
C103        H112   1.077       .  S
C104        C105   1.402       .  A
C104        H113   1.083       .  S
C105        C106   1.402       .  A
C106        H114   1.084       .  S
C115        C116   1.404       .  A
C115        C120   1.403       .  A
C116        C117   1.405       .  A
C116        H129   1.083       .  S
C117        C118   1.417       .  A
C117        H130   1.078       .  S
C118        C124   1.435       .  A
C118        C119   1.423       .  A
C119        C121   1.399       .  A
C119        C120   1.403       .  A
C120        H131   1.084       .  S
C121        C122   1.386       .  A
C121        H132   1.084       .  S
C122        C123   1.398       .  A
C122        H133   1.084       .  S
C123        C124   1.422       .  A
C123        C128   1.401       .  A
C124        C125   1.419       .  A
C125        C126   1.405       .  A
C125        H134   1.079       .  S
C126        C127   1.402       .  A
C126        H135   1.083       .  S
C127        C128   1.402       .  A
C128        H136   1.085       .  S
C137        C138   1.400       .  A
C137        C142   1.407       .  A
C138        C139   1.394       .  A
C138        H151   1.083       .  S
C139        C140   1.415       .  A
C139        H152   1.076       .  S
C140        C146   1.431       .  A
C140        C141   1.422       .  A
C141        C143   1.402       .  A
C141        C142   1.411       .  A
C142        H153   1.084       .  S
C143        C144   1.394       .  A
C143        H154   1.083       .  S
C144        C145   1.400       .  A
C144        H155   1.085       .  S
C145        C146   1.425       .  A
C145        C150   1.411       .  A
C146        C147   1.414       .  A
C147        C148   1.392       .  A
C147        H156   1.077       .  S
C148        C149   1.397       .  A
C148        H157   1.084       .  S
C149        C150   1.401       .  A
C150        H158   1.085       .  S
C159        C160   1.404       .  A
C159        C164   1.402       .  A
C160        C161   1.399       .  A
C160        H173   1.083       .  S
C161        C162   1.414       .  A
C161        H174   1.077       .  S
C162        C168   1.434       .  A
C162        C163   1.424       .  A
C163        C165   1.399       .  A
C163        C164   1.408       .  A
C164        H175   1.084       .  S
C165        C166   1.389       .  A
C165        H176   1.084       .  S
C166        C167   1.399       .  A
C166        H177   1.084       .  S
C167        C168   1.421       .  A
C167        C172   1.405       .  A
C168        C169   1.417       .  A
C169        C170   1.402       .  A
C169        H178   1.077       .  S
C170        C171   1.403       .  A
C170        H179   1.083       .  S
C171        C172   1.404       .  A
C172        H180   1.084       .  S
C181        C182   1.405       .  A
C181        C186   1.401       .  A
C182        C183   1.406       .  A
C182        H195   1.083       .  S
C183        C184   1.417       .  A
C183        H196   1.078       .  S
C184        C190   1.437       .  A
C184        C185   1.423       .  A
C185        C187   1.397   1_556  A
C185        C186   1.402       .  A
C186        H197   1.084       .  S
C187        C188   1.385       .  A
C187        H198   1.084       .  S
C188        C189   1.397       .  A
C188        H199   1.084       .  S
C189        C190   1.423   1_554  A
C189        C194   1.400       .  A
C190        C191   1.420       .  A
C191        C192   1.407       .  A
C191        H200   1.078       .  S
C192        C193   1.402       .  A
C192        H201   1.082       .  S
C193        C194   1.397   1_556  A
C194        H202   1.085       .  S
C203        C204   1.402       .  A
C203        C208   1.408       .  A
C204        C205   1.394       .  A
C204        H217   1.083       .  S
C205        C206   1.413       .  A
C205        H218   1.077   1_556  S
C206        C212   1.431       .  A
C206        C207   1.421       .  A
C207        C209   1.402       .  A
C207        C208   1.413       .  A
C208        H219   1.084       .  S
C209        C210   1.396       .  A
C209        H220   1.084       .  S
C210        C211   1.402       .  A
C210        H221   1.083       .  S
C211        C212   1.424       .  A
C211        C216   1.414       .  A
C212        C213   1.413   1_556  A
C213        C214   1.392       .  A
C213        H222   1.077       .  S
C214        C215   1.399       .  A
C214        H223   1.084       .  S
C215        C216   1.403   1_554  A
C216        H224   1.084       .  S
C225        C560   1.402   1_545  A
C225        C898   1.404       .  A
C226        C227   1.394       .  A
C226        C559   1.402       .  A
C226        H239   1.083       .  S
C227        C562   1.413       .  A
C227        H240   1.077       .  S
C228        C234   1.430       .  A
C228        C561   1.413   1_545  A
C228        C897   1.422   1_655  A
C229        C231   1.400       .  A
C229        C230   1.408       .  A
C229        C896   1.422       .  A
C230        C893   1.404       .  A
C230        H241   1.084       .  S
C231        C232   1.392       .  A
C231        H242   1.084       .  S
C232        C233   1.400       .  A
C232        H243   1.084       .  S
C233        C238   1.408       .  A
C233        C902   1.422       .  A
C234        C901   1.422   1_655  A
C234        C569   1.414   1_545  A
C235        C236   1.394       .  A
C235        C568   1.414       .  A
C235        H244   1.077       .  S
C236        C571   1.402   1_655  A
C236        H245   1.083       .  S
C237        C570   1.402   1_445  A
C237        C906   1.404       .  A
C238        C905   1.404       .  A
C238        H246   1.084       .  S
C247        C372   1.482   1_655  S
C247        C916   1.401       .  A
C247        C586   1.402   1_645  A
C248        C249   1.398       .  A
C248        C915   1.401       .  A
C248        H261   1.083       .  S
C249        C918   1.415       .  A
C249        H262   1.078       .  S
C250        C256   1.429       .  A
C250        C917   1.415       .  A
C250        C585   1.421   1_645  A
C251        C253   1.399       .  A
C251        C252   1.403       .  A
C251        C584   1.421   1_455  A
C252        C581   1.402   1_455  A
C252        H263   1.084       .  S
C253        C254   1.389       .  A
C253        H264   1.084       .  S
C254        C255   1.399       .  A
C254        H265   1.084       .  S
C255        C260   1.404       .  A
C255        C590   1.422   1_455  A
C256        C589   1.422   1_645  A
C256        C925   1.414       .  A
C257        C258   1.396       .  A
C257        C924   1.414       .  A
C257        H266   1.078       .  S
C258        C927   1.402   1_545  A
C258        H267   1.083       .  S
C259        C926   1.402   1_465  A
C259        C594   1.402       .  A
C260        C593   1.402       .  A
C260        H268   1.084       .  S
C269        C270   1.403       .  A
C269        C274   1.405       .  A
C270        C271   1.395       .  A
C270        H283   1.083       .  S
C271        C272   1.413       .  A
C271        H284   1.077       .  S
C272        C278   1.432       .  A
C272        C273   1.423       .  A
C273        C275   1.400       .  A
C273        C274   1.410       .  A
C274        H285   1.084       .  S
C275        C276   1.392       .  A
C275        H286   1.084       .  S
C276        C277   1.401       .  A
C276        H287   1.084       .  S
C277        C278   1.422       .  A
C277        C282   1.409       .  A
C278        C279   1.416       .  A
C279        C280   1.397       .  A
C279        H288   1.077       .  S
C280        C281   1.401       .  A
C280        H289   1.083       .  S
C281        C282   1.406       .  A
C282        H290   1.085       .  S
C291        C292   1.402       .  A
C291        C296   1.406       .  A
C292        C293   1.396       .  A
C292        H305   1.083       .  S
C293        C294   1.415       .  A
C293        H306   1.078       .  S
C294        C300   1.431       .  A
C294        C295   1.422       .  A
C295        C297   1.401       .  A
C295        C296   1.409       .  A
C296        H307   1.084       .  S
C297        C298   1.393       .  A
C297        H308   1.084       .  S
C298        C299   1.400       .  A
C298        H309   1.084       .  S
C299        C300   1.424       .  A
C299        C304   1.410       .  A
C300        C301   1.414       .  A
C301        C302   1.394       .  A
C301        H310   1.077       .  S
C302        C303   1.398       .  A
C302        H311   1.084       .  S
C303        C304   1.401       .  A
C304        H312   1.085       .  S
C313        C314   1.399       .  A
C313        C318   1.404       .  A
C314        C315   1.390       .  A
C314        H327   1.084       .  S
C315        C316   1.412       .  A
C315        H328   1.077       .  S
C316        C322   1.430       .  A
C316        C317   1.424       .  A
C317        C319   1.401       .  A
C317        C318   1.414       .  A
C318        H329   1.085       .  S
C319        C320   1.396       .  A
C319        H330   1.084       .  S
C320        C321   1.403       .  A
C320        H331   1.084       .  S
C321        C322   1.422       .  A
C321        C326   1.413       .  A
C322        C323   1.413       .  A
C323        C324   1.392       .  A
C323        H332   1.077       .  S
C324        C325   1.401       .  A
C324        H333   1.083       .  S
C325        C326   1.408       .  A
C326        H334   1.084       .  S
C335        N336   1.363       .  A
C335        N340   1.365       .  A
C335        C637   1.475       .  S
N336        C337   1.357       .  A
C337        N338   1.353       .  A
C337        C603   1.489       .  S
N338        C339   1.357       .  A
C339        N340   1.363       .  A
C339        C647   1.479       .  S
Zn341       O346   2.009   1_556  S
Zn341       O357   2.026       .  S
Zn341      O1013   1.961       .  S
Zn342       O349   2.021   1_556  S
Zn342       O353   2.020       .  S
Zn342       O345   1.967       .  S
Zn343      O1016   2.039   1_455  S
Zn343       O351   2.018       .  S
Zn343       O354   2.011       .  S
Zn344       O352   2.034       .  S
Zn344       O355   2.046       .  S
Zn344      O1024   2.028   1_455  S
Zn344       O345   1.973       .  S
O345      Zn1009   1.961   1_455  S
O346       C1026   1.274       .  A
O347        C359   1.275       .  A
O348      Zn1011   2.039       .  S
O348        C360   1.274       .  A
O349        C358   1.275       .  A
O350        C360   1.275       .  A
O351        C359   1.275       .  A
O352        C361   1.277       .  A
O353        C362   1.275       .  A
O355        C362   1.276       .  A
O356      Zn1012   2.028       .  S
O356        C363   1.276       .  A
O357        C363   1.274       .  A
C358        C593   1.482       .  S
C358       O1014   1.274   1_455  A
C359        C659   1.489       .  S
C360        C515   1.491       .  S
C361        C571   1.485       .  S
C362        C537   1.491       .  S
C363        C625   1.488       .  S
C364        N365   1.358       .  A
C364        N369   1.364       .  A
C364        C549   1.479       .  S
N365        C366   1.354       .  A
C366        N367   1.356       .  A
C366        C505   1.490       .  S
N367        C368   1.363       .  A
C368        N369   1.365       .  A
C368        C527   1.481   1_554  S
C370        N371   1.359       .  A
C370        N375   1.365       .  A
C370        C483   1.473       .  S
N371        C706   1.354       .  A
C372        N705   1.354   1_455  A
C372        N373   1.353   1_545  A
N373        C374   1.358       .  A
C374        N709   1.365   1_565  A
C374        C461   1.484       .  S
N375        C708   1.365       .  A
Zn376       O381   2.026       .  S
Zn376       O385   2.022       .  S
Zn376       O392   2.025       .  S
Zn376       O380   1.970       .  S
Zn377       O382   2.054       .  S
Zn377       O384   2.039       .  S
Zn377       O388   2.022       .  S
Zn377       O380   1.968       .  S
Zn378       O383   2.006       .  S
Zn378       O386   2.012       .  S
Zn378       O389   2.008       .  S
Zn378       O380   1.952       .  S
Zn379       O387   2.046       .  S
Zn379       O390   2.037       .  S
Zn379       O391   2.027       .  S
Zn379       O380   1.967       .  S
O381        C393   1.275       .  A
O382        C394   1.277       .  A
O383        C395   1.273       .  A
O384        C393   1.278       .  A
O385        C395   1.275       .  A
O386        C394   1.274       .  A
O387        C396   1.277       .  A
O388        C397   1.276       .  A
O389        C396   1.273       .  A
O390        C397   1.277       .  A
O391        C398   1.276       .  A
O392        C398   1.274       .  A
C393        C615   1.488       .  S
C394        C449   1.492       .  S
C395        C439   1.482       .  S
C396        C493   1.488       .  S
C397        C417   1.488       .  S
C398        C471   1.486       .  S
C399        N400   1.356       .  A
C399        N738   1.361   1_565  A
C399        C427   1.470       .  S
N400        C735   1.354   1_565  A
C401        N734   1.354       .  A
C401        N402   1.357   1_655  A
C401        C559   1.485       .  S
N402        C403   1.361       .  A
C403        N404   1.362   1_455  A
C403        C405   1.473       .  S
N404        C733   1.361       .  A
C405        C406   1.399       .  A
C405        C410   1.397       .  A
C406        C407   1.401       .  A
C406        H419   1.083       .  S
C407        C408   1.418       .  A
C407        H420   1.077       .  S
C408        C414   1.433       .  A
C408        C409   1.422       .  A
C409        C411   1.398       .  A
C409        C410   1.402       .  A
C410        H421   1.085       .  S
C411        C412   1.388       .  A
C411        H422   1.084       .  S
C412        C413   1.399       .  A
C412        H423   1.084       .  S
C413        C414   1.422       .  A
C413        C418   1.404       .  A
C414        C415   1.416       .  A
C415        C416   1.402       .  A
C415        H424   1.077       .  S
C416        C417   1.403       .  A
C416        H425   1.083       .  S
C417        C418   1.403       .  A
C418        H426   1.084       .  S
C427        C428   1.397       .  A
C427        C432   1.399       .  A
C428        C429   1.400       .  A
C428        H441   1.084       .  S
C429        C430   1.419       .  A
C429        H442   1.077       .  S
C430        C436   1.430       .  A
C430        C431   1.422       .  A
C431        C433   1.399       .  A
C431        C432   1.401       .  A
C432        H443   1.085       .  S
C433        C434   1.388       .  A
C433        H444   1.084       .  S
C434        C435   1.398       .  A
C434        H445   1.084       .  S
C435        C436   1.423       .  A
C435        C440   1.404       .  A
C436        C437   1.413       .  A
C437        C438   1.396       .  A
C437        H446   1.077       .  S
C438        C439   1.402       .  A
C438        H447   1.083       .  S
C439        C440   1.402       .  A
C440        H448   1.084       .  S
C449        C450   1.404       .  A
C449        C454   1.403       .  A
C450        C451   1.405       .  A
C450        H463   1.083       .  S
C451        C452   1.417       .  A
C451        H464   1.078       .  S
C452        C458   1.435       .  A
C452        C453   1.423       .  A
C453        C455   1.399       .  A
C453        C454   1.403       .  A
C454        H465   1.084       .  S
C455        C456   1.386       .  A
C455        H466   1.084       .  S
C456        C457   1.398       .  A
C456        H467   1.084       .  S
C457        C458   1.422       .  A
C457        C462   1.401       .  A
C458        C459   1.419       .  A
C459        C460   1.405       .  A
C459        H468   1.079       .  S
C460        C461   1.402       .  A
C460        H469   1.083       .  S
C461        C462   1.402       .  A
C462        H470   1.085       .  S
C471        C472   1.400       .  A
C471        C476   1.407       .  A
C472        C473   1.394       .  A
C472        H485   1.083       .  S
C473        C474   1.415       .  A
C473        H486   1.076       .  S
C474        C480   1.431       .  A
C474        C475   1.422       .  A
C475        C477   1.402       .  A
C475        C476   1.411       .  A
C476        H487   1.084       .  S
C477        C478   1.394       .  A
C477        H488   1.083       .  S
C478        C479   1.400       .  A
C478        H489   1.085       .  S
C479        C480   1.425       .  A
C479        C484   1.411       .  A
C480        C481   1.414       .  A
C481        C482   1.392       .  A
C481        H490   1.077       .  S
C482        C483   1.397       .  A
C482        H491   1.084       .  S
C483        C484   1.401       .  A
C484        H492   1.085       .  S
C493        C494   1.404       .  A
C493        C498   1.402       .  A
C494        C495   1.399       .  A
C494        H507   1.083       .  S
C495        C496   1.414       .  A
C495        H508   1.077       .  S
C496        C502   1.434       .  A
C496        C497   1.424       .  A
C497        C499   1.399       .  A
C497        C498   1.408       .  A
C498        H509   1.084       .  S
C499        C500   1.389       .  A
C499        H510   1.084       .  S
C500        C501   1.399       .  A
C500        H511   1.084       .  S
C501        C502   1.421       .  A
C501        C506   1.405       .  A
C502        C503   1.417       .  A
C503        C504   1.402       .  A
C503        H512   1.077       .  S
C504        C505   1.403       .  A
C504        H513   1.083       .  S
C505        C506   1.404       .  A
C506        H514   1.084       .  S
C515        C516   1.405       .  A
C515        C520   1.401       .  A
C516        C517   1.406       .  A
C516        H529   1.083       .  S
C517        C518   1.417       .  A
C517        H530   1.078       .  S
C518        C524   1.437       .  A
C518        C519   1.423       .  A
C519        C521   1.397   1_556  A
C519        C520   1.402       .  A
C520        H531   1.084       .  S
C521        C522   1.385       .  A
C521        H532   1.084       .  S
C522        C523   1.397       .  A
C522        H533   1.084       .  S
C523        C524   1.423   1_554  A
C523        C528   1.400       .  A
C524        C525   1.420       .  A
C525        C526   1.407       .  A
C525        H534   1.078       .  S
C526        C527   1.402       .  A
C526        H535   1.082       .  S
C527        C528   1.397   1_556  A
C528        H536   1.085       .  S
C537        C538   1.402       .  A
C537        C542   1.408       .  A
C538        C539   1.394       .  A
C538        H551   1.083       .  S
C539        C540   1.413       .  A
C539        H552   1.077   1_556  S
C540        C546   1.431       .  A
C540        C541   1.421       .  A
C541        C543   1.402       .  A
C541        C542   1.413       .  A
C542        H553   1.084       .  S
C543        C544   1.396       .  A
C543        H554   1.084       .  S
C544        C545   1.402       .  A
C544        H555   1.083       .  S
C545        C546   1.424       .  A
C545        C550   1.414       .  A
C546        C547   1.413   1_556  A
C547        C548   1.392       .  A
C547        H556   1.077       .  S
C548        C549   1.399       .  A
C548        H557   1.084       .  S
C549        C550   1.403   1_554  A
C550        H558   1.084       .  S
C559       C1232   1.404       .  A
C560        C561   1.394       .  A
C560        H573   1.083       .  S
C561        H574   1.077       .  S
C562        C568   1.430       .  A
C562       C1231   1.422   1_655  A
C563       C1230   1.422       .  A
C563        C565   1.400       .  A
C563        C564   1.408       .  A
C564       C1227   1.404       .  A
C564        H575   1.084       .  S
C565        C566   1.392       .  A
C565        H576   1.084       .  S
C566        C567   1.400       .  A
C566        H577   1.084       .  S
C567       C1236   1.422       .  A
C567        C572   1.408       .  A
C568       C1235   1.422   1_655  A
C569        C570   1.394       .  A
C569        H578   1.077       .  S
C570        H579   1.083       .  S
C571       C1240   1.404       .  A
C572       C1239   1.404       .  A
C572        H580   1.084       .  S
C581       C1250   1.401       .  A
C582       C1249   1.401       .  A
C582        C583   1.398       .  A
C582        H595   1.083       .  S
C583       C1252   1.415       .  A
C583        H596   1.078       .  S
C584       C1251   1.415       .  A
C584        C590   1.429       .  A
C585        C587   1.399       .  A
C585        C586   1.403       .  A
C586        H597   1.084       .  S
C587        C588   1.389       .  A
C587        H598   1.084       .  S
C588        C589   1.399       .  A
C588        H599   1.084       .  S
C589        C594   1.404       .  A
C590       C1259   1.414       .  A
C591       C1258   1.414       .  A
C591        C592   1.396       .  A
C591        H600   1.078       .  S
C592       C1261   1.402       .  A
C592        H601   1.083       .  S
C593       C1260   1.402   1_455  A
C594        H602   1.084       .  S
C603        C604   1.403       .  A
C603        C608   1.405       .  A
C604        C605   1.395       .  A
C604        H617   1.083       .  S
C605        C606   1.413       .  A
C605        H618   1.077       .  S
C606        C612   1.432       .  A
C606        C607   1.423       .  A
C607        C609   1.400       .  A
C607        C608   1.410       .  A
C608        H619   1.084       .  S
C609        C610   1.392       .  A
C609        H620   1.084       .  S
C610        C611   1.401       .  A
C610        H621   1.084       .  S
C611        C612   1.422       .  A
C611        C616   1.409       .  A
C612        C613   1.416       .  A
C613        C614   1.397       .  A
C613        H622   1.077       .  S
C614        C615   1.401       .  A
C614        H623   1.083       .  S
C615        C616   1.406       .  A
C616        H624   1.085       .  S
C625        C626   1.402       .  A
C625        C630   1.406       .  A
C626        C627   1.396       .  A
C626        H639   1.083       .  S
C627        C628   1.415       .  A
C627        H640   1.078       .  S
C628        C634   1.431       .  A
C628        C629   1.422       .  A
C629        C631   1.401       .  A
C629        C630   1.409       .  A
C630        H641   1.084       .  S
C631        C632   1.393       .  A
C631        H642   1.084       .  S
C632        C633   1.400       .  A
C632        H643   1.084       .  S
C633        C634   1.424       .  A
C633        C638   1.410       .  A
C634        C635   1.414       .  A
C635        C636   1.394       .  A
C635        H644   1.077       .  S
C636        C637   1.398       .  A
C636        H645   1.084       .  S
C637        C638   1.401       .  A
C638        H646   1.085       .  S
C647        C648   1.399       .  A
C647        C652   1.404       .  A
C648        C649   1.390       .  A
C648        H661   1.084       .  S
C649        C650   1.412       .  A
C649        H662   1.077       .  S
C650        C656   1.430       .  A
C650        C651   1.424       .  A
C651        C653   1.401       .  A
C651        C652   1.414       .  A
C652        H663   1.085       .  S
C653        C654   1.396       .  A
C653        H664   1.084       .  S
C654        C655   1.403       .  A
C654        H665   1.084       .  S
C655        C656   1.422       .  A
C655        C660   1.413       .  A
C656        C657   1.413       .  A
C657        C658   1.392       .  A
C657        H666   1.077       .  S
C658        C659   1.401       .  A
C658        H667   1.083       .  S
C659        C660   1.408       .  A
C660        H668   1.084       .  S
C669        N670   1.363       .  A
C669        N674   1.365       .  A
C669        C971   1.475       .  S
N670        C671   1.357       .  A
C671        N672   1.353       .  A
C671        C937   1.489       .  S
N672        C673   1.357       .  A
C673        N674   1.363       .  A
C673        C981   1.479       .  S
Zn675       O680   2.009   1_556  S
Zn675      O1018   2.019   1_545  S
Zn675       O691   2.026       .  S
Zn676      O1015   2.038       .  S
Zn676       O683   2.021   1_556  S
Zn676       O687   2.020   1_565  S
Zn676       O679   1.967   1_565  S
Zn677       O685   2.018       .  S
Zn677       O688   2.011       .  S
Zn677      O1013   1.961       .  S
Zn678       O686   2.034       .  S
Zn678       O689   2.046       .  S
Zn678       O679   1.973       .  S
O679      Zn1011   1.961   1_545  S
O681      Zn1010   2.038       .  S
O681        C693   1.275       .  A
O682        C694   1.274       .  A
O683        C692   1.275       .  A
O684      Zn1009   2.019       .  S
O684        C694   1.275       .  A
O685        C693   1.275       .  A
O686        C695   1.277       .  A
O687        C696   1.275       .  A
O688       C1029   1.275       .  A
O689        C696   1.276       .  A
O690        C697   1.276       .  A
O691        C697   1.274       .  A
C692        C927   1.482       .  S
C693        C993   1.489       .  S
C694        C849   1.491       .  S
C695        C905   1.485       .  S
C695       O1022   1.275   1_545  A
C696        C871   1.490       .  S
C697        C959   1.488       .  S
C698        N699   1.358       .  A
C698        N703   1.364       .  A
C698        C883   1.479       .  S
N699        C700   1.354       .  A
C700        N701   1.356       .  A
C700        C839   1.490       .  S
N701        C702   1.363       .  A
C702        N703   1.365       .  A
C702        C861   1.481   1_554  S
C704        N705   1.359       .  A
C704        N709   1.365   1_655  A
C704        C817   1.473       .  S
C706        N707   1.353       .  A
C706       C1249   1.482       .  S
N707        C708   1.358       .  A
C708        C795   1.484       .  S
Zn710       O715   2.026       .  S
Zn710       O719   2.022       .  S
Zn710       O726   2.025       .  S
Zn710       O714   1.970       .  S
Zn711       O716   2.054       .  S
Zn711       O718   2.039       .  S
Zn711       O722   2.022       .  S
Zn711       O714   1.968       .  S
Zn712       O717   2.006       .  S
Zn712       O720   2.012       .  S
Zn712       O723   2.008       .  S
Zn712       O714   1.952       .  S
Zn713       O721   2.046       .  S
Zn713       O724   2.037       .  S
Zn713       O725   2.027       .  S
Zn713       O714   1.967       .  S
O715        C727   1.275       .  A
O716        C728   1.277       .  A
O717        C729   1.273       .  A
O718        C727   1.278       .  A
O719        C729   1.275       .  A
O720        C728   1.274       .  A
O721        C730   1.277       .  A
O722        C731   1.276       .  A
O723        C730   1.273       .  A
O724        C731   1.277       .  A
O725        C732   1.276       .  A
O726        C732   1.274       .  A
C727        C949   1.488       .  S
C728        C783   1.492       .  S
C729        C773   1.482       .  S
C730        C827   1.488       .  S
C731        C751   1.488       .  S
C732        C805   1.486       .  S
C733        N734   1.356       .  A
C733        C761   1.470       .  S
C735        N736   1.357       .  A
C735        C893   1.485       .  S
N736        C737   1.361       .  A
C737        N738   1.362       .  A
C737        C739   1.473       .  S
C739        C740   1.399       .  A
C739        C744   1.397       .  A
C740        C741   1.401       .  A
C740        H753   1.083       .  S
C741        C742   1.418       .  A
C741        H754   1.077       .  S
C742        C748   1.433       .  A
C742        C743   1.422       .  A
C743        C745   1.398       .  A
C743        C744   1.402       .  A
C744        H755   1.085       .  S
C745        C746   1.388       .  A
C745        H756   1.084       .  S
C746        C747   1.399       .  A
C746        H757   1.084       .  S
C747        C748   1.422       .  A
C747        C752   1.404       .  A
C748        C749   1.416       .  A
C749        C750   1.402       .  A
C749        H758   1.077       .  S
C750        C751   1.403       .  A
C750        H759   1.083       .  S
C751        C752   1.403       .  A
C752        H760   1.084       .  S
C761        C762   1.397       .  A
C761        C766   1.399       .  A
C762        C763   1.400       .  A
C762        H775   1.084       .  S
C763        C764   1.419       .  A
C763        H776   1.077       .  S
C764        C770   1.430       .  A
C764        C765   1.422       .  A
C765        C767   1.399       .  A
C765        C766   1.401       .  A
C766        H777   1.085       .  S
C767        C768   1.388       .  A
C767        H778   1.084       .  S
C768        C769   1.398       .  A
C768        H779   1.084       .  S
C769        C770   1.423       .  A
C769        C774   1.404       .  A
C770        C771   1.413       .  A
C771        C772   1.396       .  A
C771        H780   1.077       .  S
C772        C773   1.402       .  A
C772        H781   1.083       .  S
C773        C774   1.402       .  A
C774        H782   1.084       .  S
C783        C784   1.404       .  A
C783        C788   1.403       .  A
C784        C785   1.405       .  A
C784        H797   1.083       .  S
C785        C786   1.417       .  A
C785        H798   1.078       .  S
C786        C792   1.435       .  A
C786        C787   1.423       .  A
C787        C789   1.399       .  A
C787        C788   1.403       .  A
C788        H799   1.084       .  S
C789        C790   1.386       .  A
C789        H800   1.084       .  S
C790        C791   1.398       .  A
C790        H801   1.084       .  S
C791        C792   1.422       .  A
C791        C796   1.401       .  A
C792        C793   1.419       .  A
C793        C794   1.405       .  A
C793        H802   1.079       .  S
C794        C795   1.402       .  A
C794        H803   1.083       .  S
C795        C796   1.402       .  A
C796        H804   1.085       .  S
C805        C806   1.400       .  A
C805        C810   1.407       .  A
C806        C807   1.394       .  A
C806        H819   1.083       .  S
C807        C808   1.415       .  A
C807        H820   1.076       .  S
C808        C814   1.431       .  A
C808        C809   1.422       .  A
C809        C811   1.402       .  A
C809        C810   1.411       .  A
C810        H821   1.084       .  S
C811        C812   1.394       .  A
C811        H822   1.083       .  S
C812        C813   1.400       .  A
C812        H823   1.085       .  S
C813        C814   1.425       .  A
C813        C818   1.411       .  A
C814        C815   1.414       .  A
C815        C816   1.392       .  A
C815        H824   1.077       .  S
C816        C817   1.397       .  A
C816        H825   1.084       .  S
C817        C818   1.401       .  A
C818        H826   1.085       .  S
C827        C828   1.404       .  A
C827        C832   1.402       .  A
C828        C829   1.399       .  A
C828        H841   1.083       .  S
C829        C830   1.414       .  A
C829        H842   1.077       .  S
C830        C836   1.434       .  A
C830        C831   1.424       .  A
C831        C833   1.399       .  A
C831        C832   1.408       .  A
C832        H843   1.084       .  S
C833        C834   1.389       .  A
C833        H844   1.084       .  S
C834        C835   1.399       .  A
C834        H845   1.084       .  S
C835        C836   1.421       .  A
C835        C840   1.405       .  A
C836        C837   1.417       .  A
C837        C838   1.402       .  A
C837        H846   1.077       .  S
C838        C839   1.403       .  A
C838        H847   1.083       .  S
C839        C840   1.404       .  A
C840        H848   1.084       .  S
C849        C850   1.405       .  A
C849        C854   1.401       .  A
C850        C851   1.406       .  A
C850        H863   1.083       .  S
C851        C852   1.417       .  A
C851        H864   1.078       .  S
C852        C858   1.437       .  A
C852        C853   1.423       .  A
C853        C855   1.397   1_556  A
C853        C854   1.402       .  A
C854        H865   1.084       .  S
C855        C856   1.385       .  A
C855        H866   1.084       .  S
C856        C857   1.397       .  A
C856        H867   1.084       .  S
C857        C858   1.423   1_554  A
C857        C862   1.400       .  A
C858        C859   1.420       .  A
C859        C860   1.407       .  A
C859        H868   1.078       .  S
C860        C861   1.402       .  A
C860        H869   1.082       .  S
C861        C862   1.397   1_556  A
C862        H870   1.085       .  S
C871        C872   1.402       .  A
C871        C876   1.408       .  A
C872        C873   1.394       .  A
C872        H885   1.083       .  S
C873        C874   1.413       .  A
C873        H886   1.077   1_556  S
C874        C880   1.431       .  A
C874        C875   1.421       .  A
C875        C877   1.402       .  A
C875        C876   1.413       .  A
C876        H887   1.084       .  S
C877        C878   1.396       .  A
C877        H888   1.084       .  S
C878        C879   1.402       .  A
C878        H889   1.083       .  S
C879        C880   1.424       .  A
C879        C884   1.414       .  A
C880        C881   1.413   1_556  A
C881        C882   1.392       .  A
C881        H890   1.077       .  S
C882        C883   1.399       .  A
C882        H891   1.084       .  S
C883        C884   1.403   1_554  A
C884        H892   1.084       .  S
C893       C1228   1.402   1_545  A
C894       C1227   1.402       .  A
C894        C895   1.394       .  A
C894        H907   1.083       .  S
C895       C1230   1.413       .  A
C895        H908   1.077       .  S
C896       C1229   1.413   1_545  A
C896        C902   1.430       .  A
C897        C899   1.400       .  A
C897        C898   1.408   1_455  A
C898        H909   1.084   1_655  S
C899        C900   1.392       .  A
C899        H910   1.084       .  S
C900        C901   1.400       .  A
C900        H911   1.084       .  S
C901        C906   1.408       .  A
C902       C1237   1.414   1_545  A
C903       C1236   1.414       .  A
C903        C904   1.394       .  A
C903        H912   1.077       .  S
C904       C1239   1.402       .  A
C904        H913   1.083       .  S
C905       C1238   1.402   1_545  A
C906        H914   1.084       .  S
C915       C1040   1.482       .  S
C915       C1254   1.402   1_545  A
C916        C917   1.398       .  A
C916        H929   1.083       .  S
C917        H930   1.078       .  S
C918        C924   1.429       .  A
C918       C1253   1.421   1_545  A
C919       C1252   1.421       .  A
C919        C921   1.399       .  A
C919        C920   1.403       .  A
C920       C1249   1.402       .  A
C920        H931   1.084       .  S
C921        C922   1.389       .  A
C921        H932   1.084       .  S
C922        C923   1.399       .  A
C922        H933   1.084       .  S
C923       C1258   1.422       .  A
C923        C928   1.404       .  A
C924       C1257   1.422   1_545  A
C925        C926   1.396       .  A
C925        H934   1.078       .  S
C926        H935   1.083       .  S
C927       C1262   1.402       .  A
C928       C1261   1.402       .  A
C928        H936   1.084       .  S
C937        C938   1.403       .  A
C937        C942   1.405       .  A
C938        C939   1.395       .  A
C938        H951   1.083       .  S
C939        C940   1.413       .  A
C939        H952   1.077       .  S
C940        C946   1.432       .  A
C940        C941   1.423       .  A
C941        C943   1.400       .  A
C941        C942   1.410       .  A
C942        H953   1.084       .  S
C943        C944   1.392       .  A
C943        H954   1.084       .  S
C944        C945   1.401       .  A
C944        H955   1.084       .  S
C945        C946   1.422       .  A
C945        C950   1.409       .  A
C946        C947   1.416       .  A
C947        C948   1.397       .  A
C947        H956   1.077       .  S
C948        C949   1.401       .  A
C948        H957   1.083       .  S
C949        C950   1.406       .  A
C950        H958   1.085       .  S
C959        C960   1.402       .  A
C959        C964   1.406       .  A
C960        C961   1.396       .  A
C960        H973   1.083       .  S
C961        C962   1.415       .  A
C961        H974   1.078       .  S
C962        C968   1.431       .  A
C962        C963   1.422       .  A
C963        C965   1.401       .  A
C963        C964   1.409       .  A
C964        H975   1.084       .  S
C965        C966   1.393       .  A
C965        H976   1.084       .  S
C966        C967   1.400       .  A
C966        H977   1.084       .  S
C967        C968   1.424       .  A
C967        C972   1.410       .  A
C968        C969   1.414       .  A
C969        C970   1.394       .  A
C969        H978   1.077       .  S
C970        C971   1.398       .  A
C970        H979   1.084       .  S
C971        C972   1.401       .  A
C972        H980   1.085       .  S
C981        C982   1.399       .  A
C981        C986   1.404       .  A
C982        C983   1.390       .  A
C982        H995   1.084       .  S
C983        C984   1.412       .  A
C983        H996   1.077       .  S
C984        C990   1.430       .  A
C984        C985   1.424       .  A
C985        C987   1.401       .  A
C985        C986   1.414       .  A
C986        H997   1.085       .  S
C987        C988   1.396       .  A
C987        H998   1.084       .  S
C988        C989   1.403       .  A
C988        H999   1.084       .  S
C989        C990   1.422       .  A
C989        C994   1.413       .  A
C990        C991   1.413       .  A
C991        C992   1.392       .  A
C991       H1000   1.077       .  S
C992        C993   1.401       .  A
C992       H1001   1.083       .  S
C993        C994   1.408       .  A
C994       H1002   1.084       .  S
C1003      N1004   1.363       .  A
C1003      N1008   1.365       .  A
C1003      C1305   1.475       .  S
N1004      C1005   1.357       .  A
C1005      N1006   1.353       .  A
C1005      C1271   1.489       .  S
N1006      C1007   1.357       .  A
C1007      N1008   1.363       .  A
C1007      C1315   1.479       .  S
Zn1009     O1014   2.009   1_556  S
Zn1009     O1025   2.026       .  S
Zn1010     O1017   2.021   1_556  S
Zn1010     O1021   2.020       .  S
Zn1010     O1013   1.967       .  S
Zn1011     O1019   2.018       .  S
Zn1011     O1022   2.011       .  S
Zn1012     O1020   2.034       .  S
Zn1012     O1023   2.046       .  S
Zn1012     O1013   1.973       .  S
O1015      C1027   1.275       .  A
O1016      C1028   1.274       .  A
O1017      C1026   1.275       .  A
O1018      C1028   1.275       .  A
O1019      C1027   1.275       .  A
O1020      C1029   1.277       .  A
O1021      C1030   1.275       .  A
O1023      C1030   1.276       .  A
O1024      C1031   1.276       .  A
O1025      C1031   1.274       .  A
C1026      C1261   1.482       .  S
C1027      C1327   1.489       .  S
C1028      C1183   1.491       .  S
C1029      C1239   1.485       .  S
C1030      C1205   1.490       .  S
C1031      C1293   1.488       .  S
C1032      N1033   1.358       .  A
C1032      N1037   1.364       .  A
C1032      C1217   1.479       .  S
N1033      C1034   1.354       .  A
C1034      N1035   1.356       .  A
C1034      C1173   1.490       .  S
N1035      C1036   1.363       .  A
C1036      N1037   1.365       .  A
C1036      C1195   1.481   1_554  S
C1038      N1039   1.359       .  A
C1038      N1043   1.365   1_655  A
C1038      C1151   1.473       .  S
C1040      N1041   1.353   1_545  A
N1041      C1042   1.358       .  A
C1042      C1129   1.484       .  S
Zn1044     O1049   2.026       .  S
Zn1044     O1053   2.022       .  S
Zn1044     O1060   2.025       .  S
Zn1044     O1048   1.970       .  S
Zn1045     O1050   2.054       .  S
Zn1045     O1052   2.039       .  S
Zn1045     O1056   2.022       .  S
Zn1045     O1048   1.968       .  S
Zn1046     O1051   2.006       .  S
Zn1046     O1054   2.012       .  S
Zn1046     O1057   2.008       .  S
Zn1046     O1048   1.952       .  S
Zn1047     O1055   2.046       .  S
Zn1047     O1058   2.037       .  S
Zn1047     O1059   2.027       .  S
Zn1047     O1048   1.967       .  S
O1049      C1061   1.275       .  A
O1050      C1062   1.277       .  A
O1051      C1063   1.273       .  A
O1052      C1061   1.278       .  A
O1053      C1063   1.275       .  A
O1054      C1062   1.274       .  A
O1055      C1064   1.277       .  A
O1056      C1065   1.276       .  A
O1057      C1064   1.273       .  A
O1058      C1065   1.277       .  A
O1059      C1066   1.276       .  A
O1060      C1066   1.274       .  A
C1061      C1283   1.488       .  S
C1062      C1117   1.492       .  S
C1063      C1107   1.482       .  S
C1064      C1161   1.488       .  S
C1065      C1085   1.488       .  S
C1066      C1139   1.486       .  S
C1067      N1068   1.356       .  A
C1067      C1095   1.470       .  S
C1069      N1070   1.357       .  A
C1069      C1227   1.485       .  S
N1070      C1071   1.361       .  A
C1071      N1072   1.362       .  A
C1071      C1073   1.473       .  S
C1073      C1074   1.399       .  A
C1073      C1078   1.397       .  A
C1074      C1075   1.401       .  A
C1074      H1087   1.083       .  S
C1075      C1076   1.418       .  A
C1075      H1088   1.077       .  S
C1076      C1082   1.433       .  A
C1076      C1077   1.422       .  A
C1077      C1079   1.398       .  A
C1077      C1078   1.402       .  A
C1078      H1089   1.085       .  S
C1079      C1080   1.388       .  A
C1079      H1090   1.084       .  S
C1080      C1081   1.399       .  A
C1080      H1091   1.084       .  S
C1081      C1082   1.422       .  A
C1081      C1086   1.404       .  A
C1082      C1083   1.416       .  A
C1083      C1084   1.402       .  A
C1083      H1092   1.077       .  S
C1084      C1085   1.403       .  A
C1084      H1093   1.083       .  S
C1085      C1086   1.403       .  A
C1086      H1094   1.084       .  S
C1095      C1096   1.397       .  A
C1095      C1100   1.399       .  A
C1096      C1097   1.400       .  A
C1096      H1109   1.084       .  S
C1097      C1098   1.419       .  A
C1097      H1110   1.077       .  S
C1098      C1104   1.430       .  A
C1098      C1099   1.422       .  A
C1099      C1101   1.399       .  A
C1099      C1100   1.401       .  A
C1100      H1111   1.085       .  S
C1101      C1102   1.388       .  A
C1101      H1112   1.084       .  S
C1102      C1103   1.398       .  A
C1102      H1113   1.084       .  S
C1103      C1104   1.423       .  A
C1103      C1108   1.404       .  A
C1104      C1105   1.413       .  A
C1105      C1106   1.396       .  A
C1105      H1114   1.077       .  S
C1106      C1107   1.402       .  A
C1106      H1115   1.083       .  S
C1107      C1108   1.402       .  A
C1108      H1116   1.084       .  S
C1117      C1118   1.404       .  A
C1117      C1122   1.403       .  A
C1118      C1119   1.405       .  A
C1118      H1131   1.083       .  S
C1119      C1120   1.417       .  A
C1119      H1132   1.078       .  S
C1120      C1126   1.435       .  A
C1120      C1121   1.423       .  A
C1121      C1123   1.399       .  A
C1121      C1122   1.403       .  A
C1122      H1133   1.084       .  S
C1123      C1124   1.386       .  A
C1123      H1134   1.084       .  S
C1124      C1125   1.398       .  A
C1124      H1135   1.084       .  S
C1125      C1126   1.422       .  A
C1125      C1130   1.401       .  A
C1126      C1127   1.419       .  A
C1127      C1128   1.405       .  A
C1127      H1136   1.079       .  S
C1128      C1129   1.402       .  A
C1128      H1137   1.083       .  S
C1129      C1130   1.402       .  A
C1130      H1138   1.085       .  S
C1139      C1140   1.400       .  A
C1139      C1144   1.407       .  A
C1140      C1141   1.394       .  A
C1140      H1153   1.083       .  S
C1141      C1142   1.415       .  A
C1141      H1154   1.076       .  S
C1142      C1148   1.431       .  A
C1142      C1143   1.422       .  A
C1143      C1145   1.402       .  A
C1143      C1144   1.411       .  A
C1144      H1155   1.084       .  S
C1145      C1146   1.394       .  A
C1145      H1156   1.083       .  S
C1146      C1147   1.400       .  A
C1146      H1157   1.085       .  S
C1147      C1148   1.425       .  A
C1147      C1152   1.411       .  A
C1148      C1149   1.414       .  A
C1149      C1150   1.392       .  A
C1149      H1158   1.077       .  S
C1150      C1151   1.397       .  A
C1150      H1159   1.084       .  S
C1151      C1152   1.401       .  A
C1152      H1160   1.085       .  S
C1161      C1162   1.404       .  A
C1161      C1166   1.402       .  A
C1162      C1163   1.399       .  A
C1162      H1175   1.083       .  S
C1163      C1164   1.414       .  A
C1163      H1176   1.077       .  S
C1164      C1170   1.434       .  A
C1164      C1165   1.424       .  A
C1165      C1167   1.399       .  A
C1165      C1166   1.408       .  A
C1166      H1177   1.084       .  S
C1167      C1168   1.389       .  A
C1167      H1178   1.084       .  S
C1168      C1169   1.399       .  A
C1168      H1179   1.084       .  S
C1169      C1170   1.421       .  A
C1169      C1174   1.405       .  A
C1170      C1171   1.417       .  A
C1171      C1172   1.402       .  A
C1171      H1180   1.077       .  S
C1172      C1173   1.403       .  A
C1172      H1181   1.083       .  S
C1173      C1174   1.404       .  A
C1174      H1182   1.084       .  S
C1183      C1184   1.405       .  A
C1183      C1188   1.401       .  A
C1184      C1185   1.406       .  A
C1184      H1197   1.083       .  S
C1185      C1186   1.417       .  A
C1185      H1198   1.078       .  S
C1186      C1192   1.437       .  A
C1186      C1187   1.423       .  A
C1187      C1189   1.397   1_556  A
C1187      C1188   1.402       .  A
C1188      H1199   1.084       .  S
C1189      C1190   1.385       .  A
C1189      H1200   1.084       .  S
C1190      C1191   1.397       .  A
C1190      H1201   1.084       .  S
C1191      C1192   1.423   1_554  A
C1191      C1196   1.400       .  A
C1192      C1193   1.420       .  A
C1193      C1194   1.407       .  A
C1193      H1202   1.078       .  S
C1194      C1195   1.402       .  A
C1194      H1203   1.082       .  S
C1195      C1196   1.397   1_556  A
C1196      H1204   1.085       .  S
C1205      C1206   1.402       .  A
C1205      C1210   1.408       .  A
C1206      C1207   1.394       .  A
C1206      H1219   1.083       .  S
C1207      C1208   1.413       .  A
C1207      H1220   1.077   1_556  S
C1208      C1214   1.431       .  A
C1208      C1209   1.421       .  A
C1209      C1211   1.402       .  A
C1209      C1210   1.413       .  A
C1210      H1221   1.084       .  S
C1211      C1212   1.396       .  A
C1211      H1222   1.084       .  S
C1212      C1213   1.402       .  A
C1212      H1223   1.083       .  S
C1213      C1214   1.424       .  A
C1213      C1218   1.414       .  A
C1214      C1215   1.413   1_556  A
C1215      C1216   1.392       .  A
C1215      H1224   1.077       .  S
C1216      C1217   1.399       .  A
C1216      H1225   1.084       .  S
C1217      C1218   1.403   1_554  A
C1218      H1226   1.084       .  S
C1228      C1229   1.394       .  A
C1228      H1241   1.083       .  S
C1229      H1242   1.077       .  S
C1230      C1236   1.430       .  A
C1231      C1233   1.400       .  A
C1231      C1232   1.408   1_455  A
C1232      H1243   1.084   1_655  S
C1233      C1234   1.392       .  A
C1233      H1244   1.084       .  S
C1234      C1235   1.400       .  A
C1234      H1245   1.084       .  S
C1235      C1240   1.408       .  A
C1237      C1238   1.394       .  A
C1237      H1246   1.077       .  S
C1238      H1247   1.083       .  S
C1240      H1248   1.084       .  S
C1250      C1251   1.398       .  A
C1250      H1263   1.083       .  S
C1251      H1264   1.078       .  S
C1252      C1258   1.429       .  A
C1253      C1255   1.399       .  A
C1253      C1254   1.403       .  A
C1254      H1265   1.084       .  S
C1255      C1256   1.389       .  A
C1255      H1266   1.084       .  S
C1256      C1257   1.399       .  A
C1256      H1267   1.084       .  S
C1257      C1262   1.404       .  A
C1259      C1260   1.396       .  A
C1259      H1268   1.078       .  S
C1260      H1269   1.083       .  S
C1262      H1270   1.084       .  S
C1271      C1272   1.403       .  A
C1271      C1276   1.405       .  A
C1272      C1273   1.395       .  A
C1272      H1285   1.083       .  S
C1273      C1274   1.413       .  A
C1273      H1286   1.077       .  S
C1274      C1280   1.432       .  A
C1274      C1275   1.423       .  A
C1275      C1277   1.400       .  A
C1275      C1276   1.410       .  A
C1276      H1287   1.084       .  S
C1277      C1278   1.392       .  A
C1277      H1288   1.084       .  S
C1278      C1279   1.401       .  A
C1278      H1289   1.084       .  S
C1279      C1280   1.422       .  A
C1279      C1284   1.409       .  A
C1280      C1281   1.416       .  A
C1281      C1282   1.397       .  A
C1281      H1290   1.077       .  S
C1282      C1283   1.401       .  A
C1282      H1291   1.083       .  S
C1283      C1284   1.406       .  A
C1284      H1292   1.085       .  S
C1293      C1294   1.402       .  A
C1293      C1298   1.406       .  A
C1294      C1295   1.396       .  A
C1294      H1307   1.083       .  S
C1295      C1296   1.415       .  A
C1295      H1308   1.078       .  S
C1296      C1302   1.431       .  A
C1296      C1297   1.422       .  A
C1297      C1299   1.401       .  A
C1297      C1298   1.409       .  A
C1298      H1309   1.084       .  S
C1299      C1300   1.393       .  A
C1299      H1310   1.084       .  S
C1300      C1301   1.400       .  A
C1300      H1311   1.084       .  S
C1301      C1302   1.424       .  A
C1301      C1306   1.410       .  A
C1302      C1303   1.414       .  A
C1303      C1304   1.394       .  A
C1303      H1312   1.077       .  S
C1304      C1305   1.398       .  A
C1304      H1313   1.084       .  S
C1305      C1306   1.401       .  A
C1306      H1314   1.085       .  S
C1315      C1316   1.399       .  A
C1315      C1320   1.404       .  A
C1316      C1317   1.390       .  A
C1316      H1329   1.084       .  S
C1317      C1318   1.412       .  A
C1317      H1330   1.077       .  S
C1318      C1324   1.430       .  A
C1318      C1319   1.424       .  A
C1319      C1321   1.401       .  A
C1319      C1320   1.414       .  A
C1320      H1331   1.085       .  S
C1321      C1322   1.396       .  A
C1321      H1332   1.084       .  S
C1322      C1323   1.403       .  A
C1322      H1333   1.084       .  S
C1323      C1324   1.422       .  A
C1323      C1328   1.413       .  A
C1324      C1325   1.413       .  A
C1325      C1326   1.392       .  A
C1325      H1334   1.077       .  S
C1326      C1327   1.401       .  A
C1326      H1335   1.083       .  S
C1327      C1328   1.408       .  A
C1328      H1336   1.084       .  S
