geometry optimzed in LAMMPS
_audit_creation_date              2020-12-01 
_audit_creation_method            'lammps2cif' 
_symmetry_space_group_name_H-M    'P1' 
_symmetry_Int_Tables_number       1 
_symmetry_cell_setting            triclinic 
loop_ 
_symmetry_equiv_pos_as_xyz 
  x,y,z 
_cell_length_a                    40.84576852 
_cell_length_b                    27.581710854880058 
_cell_length_c                    40.37521736076573 
_cell_angle_alpha                 89.87828278613253 
_cell_angle_beta                  89.83525452541485 
_cell_angle_gamma                 89.9491443145891 
loop_ 
_atom_site_label 
_atom_site_type_symbol 
_atom_site_fract_x 
_atom_site_fract_y 
_atom_site_fract_z 
_atom_site_charge 
C1          C  0.06296235  0.21807040  0.44580126     0.79700
N2          N  0.06222440  0.17548662  0.46223540    -0.78600
C3          C  0.03386180  0.15689495  0.47382523     0.82100
N4          N  0.50507335  0.18095178  0.46839100    -0.78600
C5          C  0.00551919  0.22367453  0.45107567     0.82200
N6          N  0.03456374  0.24206916  0.44026356    -0.80300
C7          C  0.28477565  0.35712060  0.44427384     0.79700
N8          N  0.28556115  0.39954210  0.46077828    -0.78600
C9          C  0.31385932  0.41738886  0.47286985     0.82100
N10         N  0.34252569  0.39279021  0.46783980    -0.78600
C11         C  0.34206376  0.35029249  0.45041014     0.82200
N12         N  0.31307534  0.33258432  0.43914627    -0.80300
In13       In  0.42392301  0.28678190  0.40814448     1.36900
C14         C  0.41186844  0.21152640  0.36871682     0.77000
O15         O  0.41422509  0.33170461  0.36348189    -0.61400
O16         O  0.45280687  0.35474717  0.39478637    -0.52300
C17         C  0.37223708  0.32561902  0.43937319     0.69700
O18         O  0.37071399  0.29121805  0.41915548    -0.47200
C19         C  0.47539188  0.24788165  0.43957787     0.74400
O20         O  0.39550914  0.21868452  0.39472122    -0.59000
O21         O  0.47706680  0.28194183  0.41900058    -0.49100
O22         O  0.43334951  0.24317982  0.36273459    -0.55500
C23         C  0.43604877  0.36282955  0.36923377     0.84600
O24         O  0.40105824  0.33805483  0.44673908    -0.57400
O25         O  0.44651547  0.23554167  0.44700454    -0.60600
C26         C  0.31296534  0.21634207  0.19206345     0.79700
N27         N  0.31218358  0.17437119  0.20922749    -0.78600
C28         C  0.28386110  0.15656554  0.22152080     0.82100
N29         N  0.25511548  0.18076510  0.21598997    -0.78600
C30         C  0.25555990  0.22279439  0.19786040     0.82200
N31         N  0.28460924  0.24047456  0.18645767    -0.80300
C32         C  0.03519886  0.35472524  0.19471402     0.79700
N33         N  0.03596722  0.39699505  0.21143343    -0.78600
C34         C  0.06433385  0.41524955  0.22309104     0.82100
N35         N  0.09312597  0.39126794  0.21725885    -0.78600
C36         C  0.09269421  0.34884566  0.19966897     0.82200
N37         N  0.06360307  0.33068965  0.18895308    -0.80300
In38       In  0.17389635  0.28635970  0.15476589     1.36900
C39         C  0.18516414  0.36272876  0.11551765     0.77000
O40         O  0.18576479  0.23959506  0.11125157    -0.61400
O41         O  0.14292590  0.22190328  0.13829225    -0.52300
C42         C  0.22539555  0.24721584  0.18642625     0.69700
O43         O  0.22708327  0.28114030  0.16576239    -0.47200
C44         C  0.12291947  0.32459479  0.18800363     0.74400
O45         O  0.20219736  0.35453589  0.14083490    -0.59000
O46         O  0.12135920  0.28755098  0.17004742    -0.49100
O47         O  0.16332132  0.33149889  0.11001885    -0.55500
C48         C  0.16190562  0.21109192  0.11484031     0.84600
O49         O  0.19647018  0.23521783  0.19394087    -0.57400
O50         O  0.15167308  0.34006840  0.19229383    -0.60600
C51         C  0.40972883  0.46515472  0.31819645     0.79700
N52         N  0.43802917  0.48936074  0.31253883    -0.78600
C53         C  0.46693952  0.47238795  0.32460470     0.82100
N54         N  0.46731379  0.43101885  0.34339521    -0.78600
C55         C  0.43860594  0.40682830  0.34903043     0.82200
N56         N  0.41040454  0.42389064  0.33611607    -0.80300
C57         C  0.18766310  0.60185358  0.32216761     0.79700
N58         N  0.18686434  0.64448301  0.33845539    -0.78600
C59         C  0.15840529  0.66335937  0.34960342     0.82100
N60         N  0.12961112  0.63963338  0.34378409    -0.78600
C61         C  0.13014911  0.59689078  0.32660713     0.82200
N62         N  0.15926576  0.57817577  0.31627888    -0.80300
In63       In  0.04901350  0.53537838  0.28210757     1.36900
C64         C  0.06179613  0.45968078  0.24288390     0.77000
O65         O  0.02592030  0.48538469  0.32152775    -0.61400
O66         O  0.99563954  0.52936488  0.29159463    -0.52300
C67         C  0.10012502  0.57326647  0.31446924     0.69700
O68         O  0.10198944  0.53939376  0.29384490    -0.47200
C69         C  0.03709398  0.61251936  0.24409363     0.74400
O70         O  0.07788064  0.46728123  0.26890319    -0.59000
O71         O  0.02024771  0.60368120  0.26954727    -0.49100
O72         O  0.04035506  0.49129669  0.23664722    -0.55500
C73         C  0.99712206  0.49656227  0.31310842     0.84600
O74         O  0.07119941  0.58601179  0.32135661    -0.57400
O75         O  0.05900542  0.58156893  0.23790597    -0.60600
C76         C  0.31396269  0.71638304  0.43973837     0.79700
N77         N  0.31362861  0.67499349  0.45767056    -0.78600
C78         C  0.28543967  0.65752625  0.47069661     0.82100
N79         N  0.25659092  0.68144551  0.46519484    -0.78600
C80         C  0.25667389  0.72276467  0.44639002     0.82200
N81         N  0.28545182  0.74004653  0.43416948    -0.80300
C82         C  0.03460042  0.85740457  0.44016524     0.79700
N83         N  0.03517203  0.89893640  0.45777974    -0.78600
C84         C  0.06336846  0.91620258  0.47061144     0.82100
N85         N  0.09211706  0.89186304  0.46522221    -0.78600
C86         C  0.09184969  0.85031366  0.44671245     0.82200
N87         N  0.06298569  0.83327755  0.43470354    -0.80300
In88       In  0.17412428  0.78600037  0.40533307     1.36900
C89         C  0.16073034  0.70877053  0.36819070     0.77000
O90         O  0.16667795  0.83186409  0.36054932    -0.61400
O91         O  0.20305976  0.85471595  0.39455778    -0.52300
C92         C  0.12207298  0.82567222  0.43559698     0.69700
O93         O  0.12065536  0.79341109  0.41376238    -0.47200
C94         C  0.22636866  0.74678762  0.43514621     0.74400
O95         O  0.14598197  0.71649328  0.39510022    -0.59000
O96         O  0.22756546  0.77727670  0.41207229    -0.49100
O97         O  0.18094189  0.74118568  0.35994385    -0.55500
C98         C  0.18770420  0.86336527  0.36819619     0.84600
O99         O  0.15083762  0.83569118  0.44479788    -0.57400
O100        O  0.19775715  0.73812759  0.44562817    -0.60600
C101        C  0.40992615  0.96637959  0.07046765     0.79700
N102        N  0.41075582  0.92439792  0.08758856    -0.78600
C103        C  0.43912299  0.90632507  0.09942321     0.82100
N104        N  0.46789507  0.93024106  0.09347160    -0.78600
C105        C  0.46739968  0.97236783  0.07545319     0.82200
N106        N  0.43829769  0.99029064  0.06446332    -0.80300
C107        C  0.18805629  0.10568512  0.06649102     0.79700
N108        N  0.18747948  0.14820690  0.08294501    -0.78600
C109        C  0.15920733  0.16672213  0.09494290     0.82100
N110        N  0.13038360  0.14259367  0.08983470    -0.78600
C111        C  0.13067645  0.09988557  0.07257072     0.82200
N112        N  0.15963171  0.08160255  0.06144351    -0.79500
In113      In  0.04881986  0.03519068  0.03111451     1.36900
C114        C  0.03635695  0.11183213  0.49290294     0.77000
O115        O  0.07159033  0.08828626  0.06863908    -0.61400
O116        O  0.10197457  0.03922246  0.04283707    -0.52300
C117        C  0.99753275  0.99643415  0.06349324     0.69700
O118        O  0.49573831  0.03042002  0.04288592    -0.47200
C119        C  0.06077873  0.96000197  0.49109274     0.74400
O120        O  0.01912381  0.10232705  0.51797124    -0.59000
O121        O  0.07767511  0.96761519  0.51657901    -0.49100
O122        O  0.05866998  0.08141796  0.48693883    -0.55500
C123        C  0.10044091  0.07497857  0.06196016     0.84600
O124        O  0.02649519  0.98405757  0.07048436    -0.57400
O125        O  0.03887197  0.99128800  0.48580702    -0.60600
C126        C  0.15875760  0.46688444  0.06594414     0.79700
N127        N  0.18710414  0.49125766  0.06072690    -0.78600
C128        C  0.21602774  0.47371802  0.07237833     0.82100
N129        N  0.21634409  0.43152124  0.09030990    -0.78600
C130        C  0.18763702  0.40705255  0.09548920     0.82200
N131        N  0.15940585  0.42476304  0.08299346    -0.80300
C132        C  0.43713357  0.60588358  0.06976812     0.79700
N133        N  0.43656718  0.64767776  0.08701323    -0.78600
C134        C  0.40831551  0.66585169  0.09922220     0.82100
N135        N  0.37941263  0.64224358  0.09346220    -0.78600
C136        C  0.37969494  0.60026114  0.07537346     0.82200
N137        N  0.40867305  0.58224282  0.06407211    -0.80300
In138      In  0.29859373  0.53790058  0.03103990     1.36900
C139        C  0.31137069  0.46197227  0.49234233     0.77000
O140        O  0.27509395  0.48624781  0.06930753    -0.61400
O141        O  0.24503849  0.53305513  0.04130261    -0.52300
C142        C  0.34952055  0.57630422  0.06366462     0.69700
O143        O  0.35134740  0.54136616  0.04388824    -0.47200
C144        C  0.28789477  0.61374054  0.49127385     0.74400
O145        O  0.32742285  0.46976111  0.51834864    -0.59000
O146        O  0.27004316  0.60540340  0.51612013    -0.49100
O147        O  0.29003981  0.49360513  0.48578921    -0.55500
C148        C  0.24632588  0.49853508  0.06156534     0.84600
O149        O  0.32057442  0.58972973  0.06989755    -0.57400
O150        O  0.31021874  0.58290869  0.48652246    -0.60600
C151        C  0.06324905  0.71738666  0.19523838     0.79700
N152        N  0.03479017  0.74121287  0.18967966    -0.78600
C153        C  0.00585572  0.72316784  0.20106546     0.82100
N154        N  0.50560696  0.68103324  0.21904778    -0.78600
C155        C  0.03447499  0.65721207  0.22459954     0.82200
N156        N  0.06271347  0.67537862  0.21236878    -0.80300
C157        C  0.28500548  0.85471025  0.19720502     0.79700
N158        N  0.31344083  0.83093811  0.19128181    -0.78600
C159        C  0.34249410  0.84922438  0.20194573     0.82100
N160        N  0.34289120  0.89164735  0.21952600    -0.78600
C161        C  0.31403730  0.91540912  0.22546956     0.82200
N162        N  0.28568445  0.89692254  0.21397111    -0.80300
In163      In  0.42398707  0.78587134  0.15814395     1.36900
C164        C  0.41112084  0.71010490  0.11912835     0.77000
O165        O  0.41484383  0.83070051  0.11315531    -0.61400
O166        O  0.45301806  0.85372945  0.14492988    -0.52300
C167        C  0.37264634  0.82509911  0.19011981     0.69700
O168        O  0.37091483  0.79038695  0.17016225    -0.47200
C169        C  0.47562438  0.74706297  0.18948694     0.74400
O170        O  0.39431255  0.71870311  0.14462843    -0.59000
O171        O  0.47719541  0.78035863  0.16834905    -0.49100
O172        O  0.43336243  0.74067762  0.11338070    -0.55500
C173        C  0.43658598  0.86186388  0.11918966     0.84600
O174        O  0.40156137  0.83805519  0.19663289    -0.57400
O175        O  0.44676695  0.73527892  0.19742643    -0.60600
C176        C  0.16119385  0.97068449  0.32243693     0.79700
N177        N  0.16193825  0.92782382  0.33848853    -0.78600
C178        C  0.19030770  0.90886201  0.34961256     0.82100
N179        N  0.21913782  0.93275626  0.34396640    -0.78600
C180        C  0.21867969  0.97584836  0.32704029     0.82200
N181        N  0.18959190  0.99466129  0.31679264    -0.80300
C182        C  0.43882188  0.10829547  0.31906696     0.79700
N183        N  0.43788857  0.14995609  0.33643377    -0.78600
C184        C  0.40948109  0.16763624  0.34852319     0.82100
N185        N  0.38079949  0.14364559  0.34261558    -0.78600
C186        C  0.38141706  0.10196158  0.32426739     0.82200
N187        N  0.41053851  0.08437101  0.31301495    -0.80300
In188      In  0.29968793  0.03806601  0.28206424     1.36900
C189        C  0.28649296  0.11258053  0.24182307     0.77000
O190        O  0.32251705  0.08802560  0.32148288    -0.61400
O191        O  0.35306683  0.04561496  0.29079705    -0.52300
C192        C  0.24879175  0.99991258  0.31514709     0.69700
O193        O  0.24704139  0.03597990  0.29620825    -0.47200
C194        C  0.31152617  0.96047073  0.24454167     0.74400
O195        O  0.27007230  0.10503282  0.26773770    -0.59000
O196        O  0.32868866  0.96991989  0.26955793    -0.49100
O197        O  0.30835310  0.08137926  0.23614562    -0.55500
C198        C  0.35137995  0.07777619  0.31263658     0.84600
O199        O  0.27763140  0.98528070  0.32030567    -0.57400
O200        O  0.28936704  0.99110678  0.23849388    -0.60600
C201        C  0.08879107  0.11166169  0.30767885    -0.18400
C202        C  0.05717440  0.13094477  0.30700542    -0.20500
C203        C  0.02986902  0.10014559  0.30619818     0.20100
C204        C  0.03431363  0.04950677  0.30500929    -0.03500
C205        C  0.06618656  0.03006584  0.30581827    -0.06500
C206        C  0.09353793  0.06131377  0.30760670     0.20400
C207        C  0.07060249  0.97938978  0.30624137     0.18600
C208        C  0.04331207  0.94860918  0.30464979    -0.18000
C209        C  0.01168457  0.96791215  0.30374109    -0.20200
C210        C  0.00690556  0.01826013  0.30447530     0.20000
C211        C  0.47527575  0.03785363  0.30641214    -0.33200
C212        C  0.47089876  0.08812546  0.30961681     0.00700
C213        C  0.49821553  0.11907464  0.30822868    -0.24600
C214        C  0.12501235  0.04166480  0.31080126    -0.29100
C215        C  0.12929862  0.99128691  0.31299580     0.06400
C216        C  0.10212519  0.96037308  0.30970012    -0.27800
H217        H  0.10949641  0.13610990  0.30905898     0.11100
H218        H  0.05405261  0.16993639  0.30791466     0.12300
H219        H  0.04639980  0.90958836  0.30489065     0.11300
H220        H  0.49094643  0.94344209  0.30332056     0.10600
H221        H  0.45429406  0.01385357  0.30760487     0.16000
H222        H  0.49492846  0.15796883  0.31031480     0.11900
H223        H  0.14588093  0.06559231  0.31349323     0.14700
H224        H  0.10537629  0.92139465  0.31103191     0.14500
C225        C  0.18124867  0.69509373  0.17839627    -0.18400
C226        C  0.21285857  0.71441149  0.17880346    -0.20500
C227        C  0.21752615  0.76474772  0.17996557     0.20100
C228        C  0.19009061  0.79599586  0.17921374    -0.03500
C229        C  0.15822849  0.77653201  0.17864808    -0.06500
C230        C  0.15386900  0.72584881  0.17908161     0.20400
C231        C  0.13077583  0.80775134  0.17940574     0.18600
C232        C  0.13545555  0.85811433  0.17932789    -0.18000
C233        C  0.16705815  0.87742092  0.18002036    -0.20200
C234        C  0.19441795  0.84663056  0.18071562     0.20000
C235        C  0.22590695  0.86552668  0.18455057    -0.33200
C236        C  0.25315421  0.83453365  0.18716840     0.00700
C237        C  0.24898377  0.78429700  0.18357477    -0.24600
C238        C  0.12229868  0.70681321  0.18206312    -0.29100
C239        C  0.09503856  0.73772644  0.18497359     0.06400
C240        C  0.09925464  0.78807516  0.18215274    -0.27800
H241        H  0.17821372  0.65607099  0.17855242     0.11100
H242        H  0.23362878  0.68994632  0.17923036     0.12300
H243        H  0.11467305  0.88255890  0.17979372     0.11300
H244        H  0.17007766  0.91641709  0.18098635     0.10600
H245        H  0.22905354  0.90440786  0.18683257     0.16000
H246        H  0.26991205  0.76027276  0.18559852     0.11900
H247        H  0.11908866  0.66786073  0.18373927     0.14700
H248        H  0.07830282  0.81202412  0.18439257     0.14500
C249        C  0.05521080  0.62771265  0.05226921    -0.18400
C250        C  0.08674898  0.60810919  0.05125766    -0.20500
C251        C  0.09127599  0.55770152  0.05107305     0.20100
C252        C  0.06373865  0.52673876  0.05048348    -0.03500
C253        C  0.03193143  0.54651276  0.05125342    -0.06500
C254        C  0.02775097  0.59718478  0.05293755     0.20400
C255        C  0.00439904  0.51552823  0.05197009     0.18600
C256        C  0.00892049  0.46514806  0.05077491    -0.18000
C257        C  0.04047578  0.44552215  0.05027532    -0.20200
C258        C  0.06796168  0.47600644  0.05080815     0.20000
C259        C  0.09951154  0.45666373  0.05345584    -0.33200
C260        C  0.12689083  0.48733835  0.05601934     0.00700
C261        C  0.12275230  0.53773688  0.05335678    -0.24600
C262        C  0.49629829  0.61636315  0.05688856    -0.29100
C263        C  0.46893697  0.58561079  0.05937952     0.06400
C264        C  0.47298068  0.53536371  0.05559829    -0.27800
H265        H  0.05231747  0.66672753  0.05341405     0.11100
H266        H  0.10760712  0.63235520  0.05165212     0.12300
H267        H  0.48807119  0.44087992  0.05123271     0.11300
H268        H  0.04338460  0.40647137  0.05038715     0.10600
H269        H  0.10262605  0.41768510  0.05508483     0.16000
H270        H  0.14376215  0.56153438  0.05538899     0.11900
H271        H  0.49325966  0.65524704  0.05936860     0.14700
H272        H  0.45197504  0.51151357  0.05757663     0.14500
C273        C  0.25998299  0.96360465  0.05494213    -0.18400
C274        C  0.29153501  0.94403450  0.05589436    -0.20500
C275        C  0.31900775  0.97455690  0.05535474     0.20100
C276        C  0.31480868  0.02512023  0.05253848    -0.03500
C277        C  0.28299109  0.04486381  0.05173050    -0.06500
C278        C  0.25545221  0.01397758  0.05353220     0.20400
C279        C  0.27877505  0.09558078  0.05074856     0.18600
C280        C  0.30625555  0.12599589  0.04904370    -0.18000
C281        C  0.33781229  0.10639515  0.04967019    -0.20200
C282        C  0.34234870  0.05610584  0.05209180     0.20000
C283        C  0.37381176  0.03644378  0.05570103    -0.33200
C284        C  0.37792881  0.98636772  0.06045881     0.00700
C285        C  0.35051372  0.95554569  0.05914681    -0.24600
C286        C  0.22399031  0.03408978  0.05569706    -0.29100
C287        C  0.21988410  0.08460796  0.05695871     0.06400
C288        C  0.24724943  0.11508257  0.05324553    -0.27800
H289        H  0.23912941  0.93940709  0.05627588     0.11100
H290        H  0.29443808  0.90509031  0.05792908     0.12300
H291        H  0.30334749  0.16502687  0.04814137     0.11300
H292        H  0.35866218  0.13066123  0.04920904     0.10600
H293        H  0.39483009  0.06036724  0.05675222     0.16000
H294        H  0.35355501  0.91676744  0.06238039     0.11900
H295        H  0.20297767  0.01045894  0.05864525     0.14700
H296        H  0.24413764  0.15412074  0.05381145     0.14500
C297        C  0.38477285  0.85853382  0.42409761    -0.18400
C298        C  0.41619403  0.87852167  0.42452176    -0.20500
C299        C  0.44386672  0.84833959  0.42423159     0.20100
C300        C  0.43997020  0.79765892  0.42200293    -0.03500
C301        C  0.40827875  0.77748005  0.42185616    -0.06500
C302        C  0.38057415  0.80807318  0.42356029     0.20400
C303        C  0.40437811  0.72667407  0.42181574     0.18600
C304        C  0.43204854  0.69658739  0.42002023    -0.18000
C305        C  0.46347812  0.71661892  0.41987564    -0.20200
C306        C  0.46769880  0.76701494  0.42169287     0.20000
C307        C  0.99902846  0.78712410  0.42506745    -0.33200
C308        C  0.00282672  0.83729878  0.42961898     0.00700
C309        C  0.47525668  0.86780140  0.42791162    -0.24600
C310        C  0.34930712  0.78765773  0.42664225    -0.29100
C311        C  0.34555238  0.73715839  0.42910747     0.06400
C312        C  0.37302520  0.70685448  0.42543294    -0.27800
H313        H  0.36376697  0.88250169  0.42530919     0.11100
H314        H  0.41884352  0.91753640  0.42605138     0.12300
H315        H  0.42940841  0.65750569  0.41973725     0.11300
H316        H  0.48449061  0.69260948  0.41946494     0.10600
H317        H  0.02017642  0.76341678  0.42635797     0.16000
H318        H  0.47807661  0.90662484  0.43093903     0.11900
H319        H  0.32820227  0.81116895  0.42950465     0.14700
H320        H  0.37015540  0.66782723  0.42689567     0.14500
C321        C  0.29165693  0.44187983  0.30322366    -0.18400
C322        C  0.25999991  0.46114204  0.30414298    -0.20500
C323        C  0.25523019  0.51149237  0.30513061     0.20100
C324        C  0.28259541  0.54277335  0.30382218    -0.03500
C325        C  0.31448132  0.52337720  0.30269277    -0.06500
C326        C  0.31898205  0.47270634  0.30318996     0.20400
C327        C  0.34185184  0.55469605  0.30279305     0.18600
C328        C  0.33707618  0.60503538  0.30280375    -0.18000
C329        C  0.30546693  0.62426564  0.30407160    -0.20200
C330        C  0.27819800  0.59341817  0.30523857     0.20000
C331        C  0.24673151  0.61233232  0.30933425    -0.33200
C332        C  0.21954299  0.58138837  0.31230347     0.00700
C333        C  0.22375842  0.53108157  0.30900250    -0.24600
C334        C  0.35066898  0.45381857  0.30557660    -0.29100
C335        C  0.37786000  0.48491745  0.30783482     0.06400
C336        C  0.37344308  0.53518701  0.30487814    -0.27800
H337        H  0.29478444  0.40286732  0.30349501     0.11100
H338        H  0.23928831  0.43664154  0.30504609     0.12300
H339        H  0.35780789  0.62952906  0.30285059     0.11300
H340        H  0.30237829  0.66326069  0.30502766     0.10600
H341        H  0.24354983  0.65124407  0.31141755     0.16000
H342        H  0.20286034  0.50709275  0.31134061     0.11900
H343        H  0.35404301  0.41490751  0.30743585     0.14700
H344        H  0.39432951  0.55926822  0.30668255     0.14500
C345        C  0.43143735  0.19452554  0.17752883    -0.18400
C346        C  0.46301290  0.21399549  0.17787639    -0.20500
C347        C  0.46759740  0.26436813  0.17866083     0.20100
C348        C  0.44009439  0.29547621  0.17788933    -0.03500
C349        C  0.40825614  0.27584981  0.17725558    -0.06500
C350        C  0.40397971  0.22514933  0.17778535     0.20400
C351        C  0.38073410  0.30693951  0.17761515     0.18600
C352        C  0.38532777  0.35732408  0.17763112    -0.18000
C353        C  0.41689327  0.37678374  0.17851684    -0.20200
C354        C  0.44433657  0.34614257  0.17921928     0.20000
C355        C  0.47584419  0.36522718  0.18271855    -0.33200
C356        C  0.00322148  0.33439332  0.18506422     0.00700
C357        C  0.99906591  0.28409727  0.18180337    -0.24600
C358        C  0.37238141  0.20597193  0.18023087    -0.29100
C359        C  0.34496992  0.23675579  0.18241867     0.06400
C360        C  0.34919109  0.28712969  0.17972652    -0.27800
H361        H  0.42848545  0.15549125  0.17786082     0.11100
H362        H  0.48383080  0.18962538  0.17843721     0.12300
H363        H  0.36449447  0.38167882  0.17789210     0.11300
H364        H  0.41982148  0.41579734  0.17942980     0.10600
H365        H  0.47892892  0.40413770  0.18485072     0.16000
H366        H  0.02005183  0.26016566  0.18371182     0.11900
H367        H  0.36922829  0.16701235  0.18193276     0.14700
H368        H  0.32816668  0.31101466  0.18152891     0.14500
C369        C  0.16642000  0.37883006  0.42892893    -0.18400
C370        C  0.13486988  0.35925520  0.42902231    -0.20500
C371        C  0.13036535  0.30886119  0.42986442     0.20100
C372        C  0.15792441  0.27784860  0.42935101    -0.03500
C373        C  0.18971766  0.29756743  0.42903301    -0.06500
C374        C  0.19391271  0.34828012  0.42953513     0.20400
C375        C  0.21725875  0.26653399  0.42972860     0.18600
C376        C  0.21276281  0.21614169  0.42973757    -0.18000
C377        C  0.18123643  0.19658753  0.43025750    -0.20200
C378        C  0.15376525  0.22715676  0.43064791     0.20000
C379        C  0.12228924  0.20793770  0.43387655    -0.33200
C380        C  0.09486868  0.23864983  0.43613801     0.00700
C381        C  0.09891459  0.28898532  0.43286042    -0.24600
C382        C  0.22544863  0.36751446  0.43225517    -0.29100
C383        C  0.25284352  0.33674850  0.43471218     0.06400
C384        C  0.24871495  0.28638774  0.43211752    -0.27800
H385        H  0.16931330  0.41787304  0.42920634     0.11100
H386        H  0.11400454  0.38354714  0.42935420     0.12300
H387        H  0.23362667  0.19185387  0.43025572     0.11300
H388        H  0.17834720  0.15755931  0.43116741     0.10600
H389        H  0.11926415  0.16899568  0.43597265     0.16000
H390        H  0.07785779  0.31280519  0.43467023     0.11900
H391        H  0.22854639  0.40647700  0.43388323     0.14700
H392        H  0.26973103  0.26252758  0.43411792     0.14500
C393        C  0.06296227  0.21807032  0.94580126     0.79700
N394        N  0.06222431  0.17548657  0.96223542    -0.78600
C395        C  0.03386173  0.15689488  0.97382528     0.82100
N396        N  0.50507330  0.18095169  0.96839106    -0.78600
C397        C  0.00551915  0.22367437  0.95107562     0.82200
N398        N  0.03456370  0.24206912  0.94026359    -0.80300
C399        C  0.28477576  0.35712056  0.94427384     0.79700
N400        N  0.28556121  0.39954203  0.96077822    -0.78600
C401        C  0.31385935  0.41738889  0.97286982     0.82100
N402        N  0.34252572  0.39279026  0.96783991    -0.78600
C403        C  0.34206385  0.35029253  0.95041025     0.82200
N404        N  0.31307546  0.33258433  0.93914634    -0.80300
In405      In  0.42392299  0.28678188  0.90814451     1.36900
C406        C  0.41186834  0.21152633  0.86871688     0.77000
O407        O  0.41422512  0.33170462  0.86348191    -0.61400
O408        O  0.45280685  0.35474709  0.89478639    -0.52300
C409        C  0.37223706  0.32561904  0.93937311     0.69700
O410        O  0.37071394  0.29121794  0.91915547    -0.47200
C411        C  0.47539191  0.24788173  0.93957789     0.74400
O412        O  0.39550903  0.21868443  0.89472126    -0.59000
O413        O  0.47706680  0.28194177  0.91900046    -0.49100
O414        O  0.43334938  0.24317975  0.86273465    -0.55500
C415        C  0.43604871  0.36282964  0.86923385     0.84600
O416        O  0.40105821  0.33805478  0.94673907    -0.57400
O417        O  0.44651554  0.23554168  0.94700461    -0.60600
C418        C  0.31296533  0.21634205  0.69206349     0.79700
N419        N  0.31218361  0.17437117  0.70922753    -0.78600
C420        C  0.28386112  0.15656552  0.72152077     0.82100
N421        N  0.25511556  0.18076513  0.71598997    -0.78600
C422        C  0.25555991  0.22279437  0.69786042     0.82200
N423        N  0.28460922  0.24047457  0.68645776    -0.80300
C424        C  0.03519888  0.35472524  0.69471407     0.79700
N425        N  0.03596725  0.39699507  0.71143353    -0.78600
C426        C  0.06433384  0.41524967  0.72309102     0.82100
N427        N  0.09312588  0.39126798  0.71725880    -0.78600
C428        C  0.09269414  0.34884575  0.69966885     0.82200
N429        N  0.06360307  0.33068960  0.68895310    -0.80300
In430      In  0.17389633  0.28635974  0.65476587     1.36900
C431        C  0.18516404  0.36272877  0.61551766     0.77000
O432        O  0.18576477  0.23959528  0.61125152    -0.61400
O433        O  0.14292592  0.22190327  0.63829240    -0.52300
C434        C  0.22539548  0.24721579  0.68642618     0.69700
O435        O  0.22708318  0.28114032  0.66576240    -0.47200
C436        C  0.12291935  0.32459472  0.68800370     0.74400
O437        O  0.20219723  0.35453605  0.64083500    -0.59000
O438        O  0.12135917  0.28755104  0.67004738    -0.49100
O439        O  0.16332127  0.33149881  0.61001873    -0.55500
C440        C  0.16190558  0.21109210  0.61484031     0.84600
O441        O  0.19647008  0.23521792  0.69394085    -0.57400
O442        O  0.15167289  0.34006840  0.69229384    -0.60600
C443        C  0.40972881  0.46515475  0.81819646     0.79700
N444        N  0.43802915  0.48936072  0.81253880    -0.78600
C445        C  0.46693951  0.47238807  0.82460473     0.82100
N446        N  0.46731380  0.43101892  0.84339522    -0.78600
C447        C  0.43860595  0.40682835  0.84903041     0.82200
N448        N  0.41040453  0.42389066  0.83611607    -0.80300
C449        C  0.18766304  0.60185359  0.82216756     0.79700
N450        N  0.18686430  0.64448313  0.83845529    -0.78600
C451        C  0.15840524  0.66335940  0.84960336     0.82100
N452        N  0.12961104  0.63963327  0.84378405    -0.78600
C453        C  0.13014903  0.59689066  0.82660710     0.82200
N454        N  0.15926568  0.57817566  0.81627890    -0.80300
In455      In  0.04901349  0.53537843  0.78210753     1.36900
C456        C  0.06179616  0.45968093  0.74288383     0.77000
O457        O  0.02592028  0.48538472  0.82152768    -0.61400
O458        O  0.99563959  0.52936485  0.79159460    -0.52300
C459        C  0.10012499  0.57326652  0.81446914     0.69700
O460        O  0.10198932  0.53939393  0.79384473    -0.47200
C461        C  0.03709386  0.61251942  0.74409360     0.74400
O462        O  0.07788062  0.46728133  0.76890316    -0.59000
O463        O  0.02024755  0.60368127  0.76954720    -0.49100
O464        O  0.04035503  0.49129676  0.73664718    -0.55500
C465        C  0.99712206  0.49656225  0.81310841     0.84600
O466        O  0.07119945  0.58601168  0.82135674    -0.57400
O467        O  0.05900540  0.58156911  0.73790611    -0.60600
C468        C  0.31396271  0.71638307  0.93973832     0.79700
N469        N  0.31362866  0.67499365  0.95767058    -0.78600
C470        C  0.28543972  0.65752624  0.97069661     0.82100
N471        N  0.25659095  0.68144538  0.96519490    -0.78600
C472        C  0.25667394  0.72276453  0.94639007     0.82200
N473        N  0.28545186  0.74004659  0.93416961    -0.80300
C474        C  0.03460042  0.85740453  0.94016523     0.79700
N475        N  0.03517201  0.89893632  0.95777967    -0.78600
C476        C  0.06336848  0.91620240  0.97061143     0.82100
N477        N  0.09211716  0.89186287  0.96522219    -0.78600
C478        C  0.09184975  0.85031351  0.94671247     0.82200
N479        N  0.06298571  0.83327750  0.93470362    -0.80300
In480      In  0.17412430  0.78600028  0.90533303     1.36900
C481        C  0.16073040  0.70877056  0.86819067     0.77000
O482        O  0.16667790  0.83186391  0.86054929    -0.61400
O483        O  0.20305980  0.85471607  0.89455777    -0.52300
C484        C  0.12207297  0.82567205  0.93559700     0.69700
O485        O  0.12065536  0.79341093  0.91376239    -0.47200
C486        C  0.22636878  0.74678757  0.93514622     0.74400
O487        O  0.14598190  0.71649311  0.89510019    -0.59000
O488        O  0.22756554  0.77727658  0.91207225    -0.49100
O489        O  0.18094195  0.74118584  0.85994374    -0.55500
C490        C  0.18770413  0.86336527  0.86819621     0.84600
O491        O  0.15083756  0.83569105  0.94479790    -0.57400
O492        O  0.19775728  0.73812750  0.94562813    -0.60600
C493        C  0.40992607  0.96637943  0.57046769     0.79700
N494        N  0.41075572  0.92439781  0.58758861    -0.78600
C495        C  0.43912296  0.90632493  0.59942316     0.82100
N496        N  0.46789506  0.93024097  0.59347160    -0.78600
C497        C  0.46739963  0.97236764  0.57545311     0.82200
N498        N  0.43829760  0.99029056  0.56446344    -0.80300
C499        C  0.18805629  0.10568508  0.56649099     0.79700
N500        N  0.18747943  0.14820685  0.58294496    -0.78600
C501        C  0.15920729  0.16672220  0.59494290     0.82100
N502        N  0.13038356  0.14259378  0.58983472    -0.78600
C503        C  0.13067648  0.09988575  0.57257065     0.82200
N504        N  0.15963175  0.08160257  0.56144351    -0.79500
In505      In  0.04881986  0.03519063  0.53111449     1.36900
C506        C  0.03635681  0.11183195  0.99290286     0.77000
O507        O  0.07159040  0.08828618  0.56863907    -0.61400
O508        O  0.10197458  0.03922247  0.54283710    -0.52300
C509        C  0.99753282  0.99643415  0.56349325     0.69700
O510        O  0.49573816  0.03042000  0.54288578    -0.47200
C511        C  0.06077878  0.96000197  0.99109273     0.74400
O512        O  0.01912372  0.10232710  0.01797128    -0.59000
O513        O  0.07767510  0.96761528  0.01657903    -0.49100
O514        O  0.05866996  0.08141789  0.98693882    -0.55500
C515        C  0.10044098  0.07497851  0.56196024     0.84600
O516        O  0.02649529  0.98405751  0.57048446    -0.57400
O517        O  0.03887201  0.99128803  0.98580708    -0.60600
C518        C  0.15875758  0.46688437  0.56594403     0.79700
N519        N  0.18710416  0.49125766  0.56072693    -0.78600
C520        C  0.21602773  0.47371793  0.57237833     0.82100
N521        N  0.21634404  0.43152123  0.59030996    -0.78600
C522        C  0.18763693  0.40705250  0.59548916     0.82200
N523        N  0.15940576  0.42476308  0.58299344    -0.80300
C524        C  0.43713363  0.60588359  0.56976812     0.79700
N525        N  0.43656720  0.64767779  0.58701321    -0.78600
C526        C  0.40831554  0.66585176  0.59922221     0.82100
N527        N  0.37941270  0.64224365  0.59346220    -0.78600
C528        C  0.37969505  0.60026130  0.57537336     0.82200
N529        N  0.40867316  0.58224284  0.56407212    -0.80300
In530      In  0.29859374  0.53790056  0.53103988     1.36900
C531        C  0.31137064  0.46197219  0.99234240     0.77000
O532        O  0.27509390  0.48624758  0.56930754    -0.61400
O533        O  0.24503849  0.53305515  0.54130268    -0.52300
C534        C  0.34952069  0.57630426  0.56366457     0.69700
O535        O  0.35134750  0.54136605  0.54388833    -0.47200
C536        C  0.28789476  0.61374061  0.99127382     0.74400
O537        O  0.32742282  0.46976109  0.01834873    -0.59000
O538        O  0.27004319  0.60540341  0.01612009    -0.49100
O539        O  0.29003988  0.49360512  0.98578918    -0.55500
C540        C  0.24632586  0.49853487  0.56156524     0.84600
O541        O  0.32057455  0.58972982  0.56989737    -0.57400
O542        O  0.31021868  0.58290879  0.98652249    -0.60600
C543        C  0.06324902  0.71738678  0.69523839     0.79700
N544        N  0.03479012  0.74121287  0.68967969    -0.78600
C545        C  0.00585568  0.72316782  0.70106552     0.82100
N546        N  0.50560692  0.68103328  0.71904783    -0.78600
C547        C  0.03447497  0.65721222  0.72459965     0.82200
N548        N  0.06271341  0.67537867  0.71236873    -0.80300
C549        C  0.28500538  0.85471034  0.69720503     0.79700
N550        N  0.31344064  0.83093815  0.69128181    -0.78600
C551        C  0.34249399  0.84922430  0.70194575     0.82100
N552        N  0.34289120  0.89164733  0.71952597    -0.78600
C553        C  0.31403734  0.91540907  0.72546963     0.82200
N554        N  0.28568451  0.89692256  0.71397114    -0.80300
In555      In  0.42398701  0.78587127  0.65814398     1.36900
C556        C  0.41112076  0.71010507  0.61912829     0.77000
O557        O  0.41484383  0.83070046  0.61315533    -0.61400
O558        O  0.45301805  0.85372936  0.64492989    -0.52300
C559        C  0.37264635  0.82509903  0.69011991     0.69700
O560        O  0.37091476  0.79038677  0.67016240    -0.47200
C561        C  0.47562443  0.74706305  0.68948693     0.74400
O562        O  0.39431248  0.71870294  0.64462849    -0.59000
O563        O  0.47719534  0.78035864  0.66834897    -0.49100
O564        O  0.43336242  0.74067781  0.61338065    -0.55500
C565        C  0.43658607  0.86186372  0.61918958     0.84600
O566        O  0.40156146  0.83805536  0.69663277    -0.57400
O567        O  0.44676706  0.73527885  0.69742639    -0.60600
C568        C  0.16119377  0.97068457  0.82243693     0.79700
N569        N  0.16193818  0.92782400  0.83848859    -0.78600
C570        C  0.19030760  0.90886218  0.84961268     0.82100
N571        N  0.21913779  0.93275631  0.84396640    -0.78600
C572        C  0.21867959  0.97584844  0.82704030     0.82200
N573        N  0.18959181  0.99466141  0.81679274    -0.80300
C574        C  0.43882191  0.10829552  0.81906699     0.79700
N575        N  0.43788866  0.14995618  0.83643382    -0.78600
C576        C  0.40948110  0.16763626  0.84852320     0.82100
N577        N  0.38079949  0.14364554  0.84261555    -0.78600
C578        C  0.38141703  0.10196160  0.82426732     0.82200
N579        N  0.41053848  0.08437108  0.81301489    -0.80300
In580      In  0.29968794  0.03806612  0.78206423     1.36900
C581        C  0.28649287  0.11258067  0.74182306     0.77000
O582        O  0.32251706  0.08802568  0.82148296    -0.61400
O583        O  0.35306678  0.04561508  0.79079691    -0.52300
C584        C  0.24879163  0.99991273  0.81514711     0.69700
O585        O  0.24704141  0.03598001  0.79620827    -0.47200
C586        C  0.31152615  0.96047086  0.74454167     0.74400
O587        O  0.27007228  0.10503310  0.76773777    -0.59000
O588        O  0.32868867  0.96992003  0.76955791    -0.49100
O589        O  0.30835292  0.08137935  0.73614549    -0.55500
C590        C  0.35137993  0.07777619  0.81263655     0.84600
O591        O  0.27763122  0.98528083  0.82030555    -0.57400
O592        O  0.28936694  0.99110690  0.73849394    -0.60600
C593        C  0.08879089  0.11166167  0.80767883    -0.18400
C594        C  0.05717427  0.13094483  0.80700539    -0.20500
C595        C  0.02986904  0.10014540  0.80619817     0.20100
C596        C  0.03431368  0.04950675  0.80500929    -0.03500
C597        C  0.06618660  0.03006582  0.80581827    -0.06500
C598        C  0.09353796  0.06131389  0.80760670     0.20400
C599        C  0.07060245  0.97938968  0.80624146     0.18600
C600        C  0.04331198  0.94860905  0.80464985    -0.18000
C601        C  0.01168445  0.96791207  0.80374116    -0.20200
C602        C  0.00690556  0.01826016  0.80447532     0.20000
C603        C  0.47527579  0.03785356  0.80641215    -0.33200
C604        C  0.47089873  0.08812515  0.80961681     0.00700
C605        C  0.49821554  0.11907435  0.80822868    -0.24600
C606        C  0.12501235  0.04166501  0.81080129    -0.29100
C607        C  0.12929863  0.99128713  0.81299588     0.06400
C608        C  0.10212516  0.96037307  0.80970016    -0.27800
H609        H  0.10949629  0.13611004  0.80905893     0.11100
H610        H  0.05405233  0.16993631  0.80791492     0.12300
H611        H  0.04639952  0.90958776  0.80489130     0.11300
H612        H  0.49094657  0.94344237  0.80332032     0.10600
H613        H  0.45429383  0.01385346  0.80760489     0.16000
H614        H  0.49492855  0.15796792  0.81031479     0.11900
H615        H  0.14588108  0.06559292  0.81349333     0.14700
H616        H  0.10537615  0.92139481  0.81103205     0.14500
C617        C  0.18124864  0.69509372  0.67839630    -0.18400
C618        C  0.21285853  0.71441159  0.67880347    -0.20500
C619        C  0.21752608  0.76474773  0.67996555     0.20100
C620        C  0.19009059  0.79599577  0.67921374    -0.03500
C621        C  0.15822849  0.77653176  0.67864808    -0.06500
C622        C  0.15386899  0.72584881  0.67908163     0.20400
C623        C  0.13077601  0.80775088  0.67940574     0.18600
C624        C  0.13545558  0.85811396  0.67932787    -0.18000
C625        C  0.16705817  0.87742081  0.68002033    -0.20200
C626        C  0.19441792  0.84663058  0.68071562     0.20000
C627        C  0.22590686  0.86552688  0.68455060    -0.33200
C628        C  0.25315406  0.83453391  0.68716842     0.00700
C629        C  0.24898368  0.78429715  0.68357476    -0.24600
C630        C  0.12229866  0.70681318  0.68206312    -0.29100
C631        C  0.09503860  0.73772639  0.68497353     0.06400
C632        C  0.09925468  0.78807509  0.68215270    -0.27800
H633        H  0.17821364  0.65607163  0.67855216     0.11100
H634        H  0.23362887  0.68994601  0.67923043     0.12300
H635        H  0.11467345  0.88255793  0.67979365     0.11300
H636        H  0.17007733  0.91641705  0.68098662     0.10600
H637        H  0.22905329  0.90440801  0.68683264     0.16000
H638        H  0.26991167  0.76027323  0.68559847     0.11900
H639        H  0.11908853  0.66786072  0.68373925     0.14700
H640        H  0.07830321  0.81202387  0.68439255     0.14500
C641        C  0.05521089  0.62771262  0.55226921    -0.18400
C642        C  0.08674908  0.60810935  0.55125770    -0.20500
C643        C  0.09127622  0.55770178  0.55107305     0.20100
C644        C  0.06373870  0.52673891  0.55048348    -0.03500
C645        C  0.03193143  0.54651274  0.55125344    -0.06500
C646        C  0.02775101  0.59718466  0.55293754     0.20400
C647        C  0.00439882  0.51552801  0.55197013     0.18600
C648        C  0.00892039  0.46514781  0.55077494    -0.18000
C649        C  0.04047572  0.44552215  0.55027531    -0.20200
C650        C  0.06796167  0.47600660  0.55080805     0.20000
C651        C  0.09951151  0.45666383  0.55345568    -0.33200
C652        C  0.12689085  0.48733845  0.55601931     0.00700
C653        C  0.12275240  0.53773693  0.55335674    -0.24600
C654        C  0.49629835  0.61636305  0.55688857    -0.29100
C655        C  0.46893704  0.58561082  0.55937954     0.06400
C656        C  0.47298078  0.53536375  0.55559831    -0.27800
H657        H  0.05231721  0.66672755  0.55341403     0.11100
H658        H  0.10760750  0.63235591  0.55165215     0.12300
H659        H  0.48807114  0.44087952  0.55123273     0.11300
H660        H  0.04338465  0.40647141  0.55038709     0.10600
H661        H  0.10262604  0.41768518  0.55508423     0.16000
H662        H  0.14376244  0.56153464  0.55538909     0.11900
H663        H  0.49325972  0.65524705  0.55936857     0.14700
H664        H  0.45197532  0.51151348  0.55757667     0.14500
C665        C  0.25998293  0.96360458  0.55494213    -0.18400
C666        C  0.29153502  0.94403440  0.55589436    -0.20500
C667        C  0.31900776  0.97455653  0.55535477     0.20100
C668        C  0.31480860  0.02511996  0.55253848    -0.03500
C669        C  0.28299095  0.04486354  0.55173052    -0.06500
C670        C  0.25545208  0.01397746  0.55353222     0.20400
C671        C  0.27877494  0.09558043  0.55074858     0.18600
C672        C  0.30625538  0.12599553  0.54904371    -0.18000
C673        C  0.33781220  0.10639492  0.54967018    -0.20200
C674        C  0.34234847  0.05610547  0.55209180     0.20000
C675        C  0.37381159  0.03644342  0.55570104    -0.33200
C676        C  0.37792866  0.98636717  0.56045884     0.00700
C677        C  0.35051371  0.95554524  0.55914686    -0.24600
C678        C  0.22399019  0.03408968  0.55569709    -0.29100
C679        C  0.21988404  0.08460785  0.55695872     0.06400
C680        C  0.24724938  0.11508232  0.55324554    -0.27800
H681        H  0.23912936  0.93940716  0.55627587     0.11100
H682        H  0.29443820  0.90509020  0.55792909     0.12300
H683        H  0.30334734  0.16502620  0.54814135     0.11300
H684        H  0.35866175  0.13066097  0.54920904     0.10600
H685        H  0.39482950  0.06036649  0.55675219     0.16000
H686        H  0.35355512  0.91676646  0.56238039     0.11900
H687        H  0.20297750  0.01045875  0.55864530     0.14700
H688        H  0.24413757  0.15412064  0.55381147     0.14500
C689        C  0.38477291  0.85853385  0.92409777    -0.18400
C690        C  0.41619413  0.87852148  0.92452184    -0.20500
C691        C  0.44386687  0.84833977  0.92423160     0.20100
C692        C  0.43997027  0.79765907  0.92200297    -0.03500
C693        C  0.40827882  0.77748026  0.92185626    -0.06500
C694        C  0.38057420  0.80807322  0.92356034     0.20400
C695        C  0.40437818  0.72667447  0.92181574     0.18600
C696        C  0.43204860  0.69658744  0.92002021    -0.18000
C697        C  0.46347816  0.71661887  0.91987564    -0.20200
C698        C  0.46769885  0.76701488  0.92169286     0.20000
C699        C  0.99902843  0.78712422  0.92506745    -0.33200
C700        C  0.00282670  0.83729900  0.92961901     0.00700
C701        C  0.47525680  0.86780143  0.92791163    -0.24600
C702        C  0.34930717  0.78765779  0.92664241    -0.29100
C703        C  0.34555236  0.73715864  0.92910755     0.06400
C704        C  0.37302516  0.70685477  0.92543293    -0.27800
H705        H  0.36376738  0.88250177  0.92530953     0.11100
H706        H  0.41884353  0.91753639  0.92605134     0.12300
H707        H  0.42940835  0.65750626  0.91973722     0.11300
H708        H  0.48449076  0.69260892  0.91946492     0.10600
H709        H  0.02017612  0.76341668  0.92635829     0.16000
H710        H  0.47807685  0.90662544  0.93093912     0.11900
H711        H  0.32820229  0.81116908  0.92950450     0.14700
H712        H  0.37015516  0.66782805  0.92689558     0.14500
C713        C  0.29165670  0.44187943  0.80322367    -0.18400
C714        C  0.25999982  0.46114159  0.80414299    -0.20500
C715        C  0.25523023  0.51149209  0.80513061     0.20100
C716        C  0.28259544  0.54277320  0.80382217    -0.03500
C717        C  0.31448120  0.52337705  0.80269276    -0.06500
C718        C  0.31898187  0.47270608  0.80318997     0.20400
C719        C  0.34185174  0.55469590  0.80279296     0.18600
C720        C  0.33707618  0.60503518  0.80280369    -0.18000
C721        C  0.30546696  0.62426558  0.80407152    -0.20200
C722        C  0.27819806  0.59341801  0.80523857     0.20000
C723        C  0.24673152  0.61233228  0.80933427    -0.33200
C724        C  0.21954302  0.58138833  0.81230343     0.00700
C725        C  0.22375850  0.53108149  0.80900248    -0.24600
C726        C  0.35066887  0.45381857  0.80557662    -0.29100
C727        C  0.37785993  0.48491733  0.80783482     0.06400
C728        C  0.37344301  0.53518693  0.80487809    -0.27800
H729        H  0.29478436  0.40286644  0.80349503     0.11100
H730        H  0.23928783  0.43664076  0.80504613     0.12300
H731        H  0.35780809  0.62952909  0.80284999     0.11300
H732        H  0.30237810  0.66326018  0.80502761     0.10600
H733        H  0.24354978  0.65124391  0.81141758     0.16000
H734        H  0.20286055  0.50709293  0.81134062     0.11900
H735        H  0.35404282  0.41490736  0.80743591     0.14700
H736        H  0.39432909  0.55926800  0.80668273     0.14500
C737        C  0.43143746  0.19452563  0.67752883    -0.18400
C738        C  0.46301301  0.21399565  0.67787640    -0.20500
C739        C  0.46759738  0.26436824  0.67866079     0.20100
C740        C  0.44009439  0.29547641  0.67788923    -0.03500
C741        C  0.40825614  0.27585002  0.67725557    -0.06500
C742        C  0.40397977  0.22514966  0.67778535     0.20400
C743        C  0.38073402  0.30693979  0.67761515     0.18600
C744        C  0.38532769  0.35732446  0.67763114    -0.18000
C745        C  0.41689328  0.37678395  0.67851675    -0.20200
C746        C  0.44433658  0.34614290  0.67921926     0.20000
C747        C  0.47584421  0.36522747  0.68271845    -0.33200
C748        C  0.00322140  0.33439346  0.68506415     0.00700
C749        C  0.99906577  0.28409732  0.68180335    -0.24600
C750        C  0.37238142  0.20597208  0.68023087    -0.29100
C751        C  0.34496987  0.23675605  0.68241866     0.06400
C752        C  0.34919102  0.28712985  0.67972652    -0.27800
H753        H  0.42848550  0.15549185  0.67786082     0.11100
H754        H  0.48383111  0.18962529  0.67843723     0.12300
H755        H  0.36449431  0.38167909  0.67789222     0.11300
H756        H  0.41982172  0.41579805  0.67942976     0.10600
H757        H  0.47892900  0.40413810  0.68485011     0.16000
H758        H  0.02005152  0.26016591  0.68371186     0.11900
H759        H  0.36922830  0.16701307  0.68193281     0.14700
H760        H  0.32816643  0.31101478  0.68152888     0.14500
C761        C  0.16641980  0.37882996  0.92892892    -0.18400
C762        C  0.13486976  0.35925497  0.92902232    -0.20500
C763        C  0.13036522  0.30886117  0.92986443     0.20100
C764        C  0.15792447  0.27784854  0.92935101    -0.03500
C765        C  0.18971768  0.29756737  0.92903302    -0.06500
C766        C  0.19391266  0.34828005  0.92953515     0.20400
C767        C  0.21725879  0.26653385  0.92972861     0.18600
C768        C  0.21276286  0.21614136  0.92973758    -0.18000
C769        C  0.18123660  0.19658721  0.93025751    -0.20200
C770        C  0.15376537  0.22715655  0.93064792     0.20000
C771        C  0.12228928  0.20793762  0.93387656    -0.33200
C772        C  0.09486864  0.23864968  0.93613800     0.00700
C773        C  0.09891449  0.28898517  0.93286045    -0.24600
C774        C  0.22544855  0.36751454  0.93225519    -0.29100
C775        C  0.25284355  0.33674872  0.93471218     0.06400
C776        C  0.24871491  0.28638788  0.93211754    -0.27800
H777        H  0.16931307  0.41787240  0.92920634     0.11100
H778        H  0.11400408  0.38354745  0.92935424     0.12300
H779        H  0.23362686  0.19185332  0.93025573     0.11300
H780        H  0.17834745  0.15755860  0.93116743     0.10600
H781        H  0.11926414  0.16899554  0.93597266     0.16000
H782        H  0.07785767  0.31280504  0.93467024     0.11900
H783        H  0.22854620  0.40647760  0.93388323     0.14700
H784        H  0.26973105  0.26252775  0.93411794     0.14500
C785        C  0.56296230  0.21807039  0.44580124     0.79700
N786        N  0.56222433  0.17548663  0.46223542    -0.78600
C787        C  0.53386178  0.15689496  0.47382528     0.82100
N788        N  0.00507331  0.18095180  0.46839100    -0.78600
C789        C  0.50551919  0.22367450  0.45107566     0.82200
N790        N  0.53456370  0.24206918  0.44026354    -0.80300
C791        C  0.78477574  0.35712058  0.44427385     0.79700
N792        N  0.78556119  0.39954207  0.46077831    -0.78600
C793        C  0.81385933  0.41738885  0.47286988     0.82100
N794        N  0.84252566  0.39279021  0.46783980    -0.78600
C795        C  0.84206380  0.35029252  0.45041013     0.82200
N796        N  0.81307546  0.33258430  0.43914626    -0.80300
In797      In  0.92392302  0.28678190  0.40814449     1.36900
C798        C  0.91186834  0.21152643  0.36871682     0.77000
O799        O  0.91422509  0.33170454  0.36348188    -0.61400
O800        O  0.95280688  0.35474715  0.39478634    -0.52300
C801        C  0.87223704  0.32561906  0.43937320     0.69700
O802        O  0.87071392  0.29121808  0.41915551    -0.47200
C803        C  0.97539192  0.24788170  0.43957784     0.74400
O804        O  0.89550910  0.21868450  0.39472126    -0.59000
O805        O  0.97706680  0.28194185  0.41900055    -0.49100
O806        O  0.93334946  0.24317978  0.36273463    -0.55500
C807        C  0.93604875  0.36282955  0.36923377     0.84600
O808        O  0.90105818  0.33805488  0.44673909    -0.57400
O809        O  0.94651555  0.23554170  0.44700450    -0.60600
C810        C  0.81296534  0.21634209  0.19206344     0.79700
N811        N  0.81218360  0.17437120  0.20922747    -0.78600
C812        C  0.78386113  0.15656556  0.22152082     0.82100
N813        N  0.75511551  0.18076509  0.21598996    -0.78600
C814        C  0.75555989  0.22279436  0.19786038     0.82200
N815        N  0.78460921  0.24047456  0.18645766    -0.80300
C816        C  0.53519892  0.35472529  0.19471402     0.79700
N817        N  0.53596728  0.39699512  0.21143346    -0.78600
C818        C  0.56433389  0.41524965  0.22309107     0.82100
N819        N  0.59312591  0.39126803  0.21725886    -0.78600
C820        C  0.59269417  0.34884573  0.19966898     0.82200
N821        N  0.56360311  0.33068968  0.18895308    -0.80300
In822      In  0.67389635  0.28635968  0.15476587     1.36900
C823        C  0.68516408  0.36272876  0.11551767     0.77000
O824        O  0.68576485  0.23959520  0.11125149    -0.61400
O825        O  0.64292590  0.22190315  0.13829224    -0.52300
C826        C  0.72539546  0.24721582  0.18642625     0.69700
O827        O  0.72708321  0.28114028  0.16576239    -0.47200
C828        C  0.62291939  0.32459484  0.18800363     0.74400
O829        O  0.70219735  0.35453597  0.14083493    -0.59000
O830        O  0.62135921  0.28755104  0.17004742    -0.49100
O831        O  0.66332130  0.33149876  0.11001875    -0.55500
C832        C  0.66190570  0.21109190  0.11484033     0.84600
O833        O  0.69647007  0.23521780  0.19394088    -0.57400
O834        O  0.65167297  0.34006837  0.19229384    -0.60600
C835        C  0.90972879  0.46515470  0.31819648     0.79700
N836        N  0.93802910  0.48936077  0.31253881    -0.78600
C837        C  0.96693948  0.47238803  0.32460466     0.82100
N838        N  0.96731377  0.43101895  0.34339518    -0.78600
C839        C  0.93860595  0.40682834  0.34903044     0.82200
N840        N  0.91040454  0.42389061  0.33611612    -0.80300
C841        C  0.68766303  0.60185365  0.32216753     0.79700
N842        N  0.68686426  0.64448309  0.33845537    -0.78600
C843        C  0.65840520  0.66335944  0.34960333     0.82100
N844        N  0.62961106  0.63963330  0.34378409    -0.78600
C845        C  0.63014903  0.59689070  0.32660711     0.82200
N846        N  0.65926567  0.57817572  0.31627888    -0.80300
In847      In  0.54901349  0.53537842  0.28210756     1.36900
C848        C  0.56179626  0.45968090  0.24288384     0.77000
O849        O  0.52592028  0.48538470  0.32152773    -0.61400
O850        O  0.49563960  0.52936483  0.29159465    -0.52300
C851        C  0.60012491  0.57326648  0.31446925     0.69700
O852        O  0.60198935  0.53939376  0.29384490    -0.47200
C853        C  0.53709385  0.61251935  0.24409362     0.74400
O854        O  0.57788059  0.46728131  0.26890326    -0.59000
O855        O  0.52024763  0.60368125  0.26954731    -0.49100
O856        O  0.54035512  0.49129664  0.23664717    -0.55500
C857        C  0.49712207  0.49656223  0.31310844     0.84600
O858        O  0.57119931  0.58601184  0.32135661    -0.57400
O859        O  0.55900534  0.58156899  0.23790601    -0.60600
C860        C  0.81396272  0.71638309  0.43973839     0.79700
N861        N  0.81362865  0.67499351  0.45767054    -0.78600
C862        C  0.78543972  0.65752624  0.47069662     0.82100
N863        N  0.75659091  0.68144545  0.46519487    -0.78600
C864        C  0.75667389  0.72276464  0.44639006     0.82200
N865        N  0.78545179  0.74004649  0.43416950    -0.80300
C866        C  0.53460041  0.85740459  0.44016527     0.79700
N867        N  0.53517200  0.89893643  0.45777973    -0.78600
C868        C  0.56336848  0.91620255  0.47061144     0.82100
N869        N  0.59211715  0.89186300  0.46522221    -0.78600
C870        C  0.59184976  0.85031362  0.44671246     0.82200
N871        N  0.56298574  0.83327757  0.43470357    -0.80300
In872      In  0.67412432  0.78600036  0.40533305     1.36900
C873        C  0.66073030  0.70877057  0.36819066     0.77000
O874        O  0.66667794  0.83186401  0.36054930    -0.61400
O875        O  0.70305978  0.85471600  0.39455770    -0.52300
C876        C  0.62207299  0.82567216  0.43559696     0.69700
O877        O  0.62065548  0.79341106  0.41376238    -0.47200
C878        C  0.72636876  0.74678762  0.43514621     0.74400
O879        O  0.64598198  0.71649332  0.39510021    -0.59000
O880        O  0.72756550  0.77727667  0.41207229    -0.49100
O881        O  0.68094189  0.74118566  0.35994383    -0.55500
C882        C  0.68770408  0.86336536  0.36819621     0.84600
O883        O  0.65083755  0.83569117  0.44479786    -0.57400
O884        O  0.69775731  0.73812757  0.44562815    -0.60600
C885        C  0.90992613  0.96637962  0.07046766     0.79700
N886        N  0.91075572  0.92439793  0.08758853    -0.78600
C887        C  0.93912290  0.90632507  0.09942319     0.82100
N888        N  0.96789501  0.93024105  0.09347159    -0.78600
C889        C  0.96739966  0.97236783  0.07545321     0.82200
N890        N  0.93829771  0.99029065  0.06446335    -0.80300
C891        C  0.68805631  0.10568512  0.06649101     0.79700
N892        N  0.68747943  0.14820686  0.08294503    -0.78600
C893        C  0.65920730  0.16672214  0.09494292     0.82100
N894        N  0.63038358  0.14259372  0.08983472    -0.78600
C895        C  0.63067652  0.09988561  0.07257073     0.82200
N896        N  0.65963180  0.08160257  0.06144350    -0.79500
In897      In  0.54881991  0.03519065  0.03111449     1.36900
C898        C  0.53635682  0.11183211  0.49290293     0.77000
O899        O  0.57159045  0.08828626  0.06863909    -0.61400
O900        O  0.60197457  0.03922252  0.04283710    -0.52300
C901        C  0.49753287  0.99643412  0.06349324     0.69700
O902        O  0.99573818  0.03042005  0.04288591    -0.47200
C903        C  0.56077879  0.96000199  0.49109273     0.74400
O904        O  0.51912374  0.10232710  0.51797128    -0.59000
O905        O  0.57767514  0.96761523  0.51657902    -0.49100
O906        O  0.55866989  0.08141800  0.48693887    -0.55500
C907        C  0.60044101  0.07497861  0.06196018     0.84600
O908        O  0.52649534  0.98405754  0.07048438    -0.57400
O909        O  0.53887203  0.99128803  0.48580702    -0.60600
C910        C  0.65875758  0.46688442  0.06594415     0.79700
N911        N  0.68710416  0.49125760  0.06072691    -0.78600
C912        C  0.71602774  0.47371801  0.07237834     0.82100
N913        N  0.71634412  0.43152123  0.09030991    -0.78600
C914        C  0.68763698  0.40705255  0.09548921     0.82200
N915        N  0.65940581  0.42476302  0.08299344    -0.80300
C916        C  0.93713370  0.60588355  0.06976814     0.79700
N917        N  0.93656723  0.64767773  0.08701325    -0.78600
C918        C  0.90831557  0.66585166  0.09922222     0.82100
N919        N  0.87941270  0.64224356  0.09346220    -0.78600
C920        C  0.87969509  0.60026112  0.07537346     0.82200
N921        N  0.90867321  0.58224281  0.06407210    -0.80300
In922      In  0.79859376  0.53790058  0.03103990     1.36900
C923        C  0.81137074  0.46197228  0.49234232     0.77000
O924        O  0.77509386  0.48624782  0.06930752    -0.61400
O925        O  0.74503861  0.53305515  0.04130261    -0.52300
C926        C  0.84952070  0.57630423  0.06366461     0.69700
O927        O  0.85134750  0.54136619  0.04388823    -0.47200
C928        C  0.78789486  0.61374055  0.49127385     0.74400
O929        O  0.82742287  0.46976095  0.51834872    -0.59000
O930        O  0.77004322  0.60540327  0.51612004    -0.49100
O931        O  0.79003987  0.49360517  0.48578916    -0.55500
C932        C  0.74632586  0.49853511  0.06156533     0.84600
O933        O  0.82057457  0.58972972  0.06989753    -0.57400
O934        O  0.81021881  0.58290869  0.48652252    -0.60600
C935        C  0.56324906  0.71738670  0.19523838     0.79700
N936        N  0.53479018  0.74121289  0.18967966    -0.78600
C937        C  0.50585575  0.72316782  0.20106547     0.82100
N938        N  0.00560695  0.68103328  0.21904777    -0.78600
C939        C  0.53447496  0.65721208  0.22459958     0.82200
N940        N  0.56271341  0.67537863  0.21236879    -0.80300
C941        C  0.78500542  0.85471029  0.19720504     0.79700
N942        N  0.81344075  0.83093810  0.19128180    -0.78600
C943        C  0.84249405  0.84922434  0.20194571     0.82100
N944        N  0.84289115  0.89164730  0.21952598    -0.78600
C945        C  0.81403726  0.91540911  0.22546955     0.82200
N946        N  0.78568441  0.89692257  0.21397113    -0.80300
In947      In  0.92398702  0.78587133  0.15814397     1.36900
C948        C  0.91112085  0.71010490  0.11912836     0.77000
O949        O  0.91484377  0.83070054  0.11315532    -0.61400
O950        O  0.95301801  0.85372944  0.14492990    -0.52300
C951        C  0.87264628  0.82509911  0.19011982     0.69700
O952        O  0.87091468  0.79038692  0.17016226    -0.47200
C953        C  0.97562441  0.74706302  0.18948692     0.74400
O954        O  0.89431256  0.71870294  0.14462849    -0.59000
O955        O  0.97719547  0.78035868  0.16834902    -0.49100
O956        O  0.93336244  0.74067771  0.11338065    -0.55500
C957        C  0.93658595  0.86186387  0.11918965     0.84600
O958        O  0.90156134  0.83805523  0.19663292    -0.57400
O959        O  0.94676698  0.73527892  0.19742643    -0.60600
C960        C  0.66119383  0.97068445  0.32243685     0.79700
N961        N  0.66193821  0.92782387  0.33848852    -0.78600
C962        C  0.69030761  0.90886203  0.34961254     0.82100
N963        N  0.71913774  0.93275625  0.34396639    -0.78600
C964        C  0.71867962  0.97584828  0.32704021     0.82200
N965        N  0.68959188  0.99466123  0.31679261    -0.80300
C966        C  0.93882198  0.10829554  0.31906698     0.79700
N967        N  0.93788865  0.14995615  0.33643379    -0.78600
C968        C  0.90948111  0.16763623  0.34852322     0.82100
N969        N  0.88079949  0.14364555  0.34261557    -0.78600
C970        C  0.88141711  0.10196158  0.32426734     0.82200
N971        N  0.91053860  0.08437108  0.31301495    -0.80300
In972      In  0.79968795  0.03806607  0.28206423     1.36900
C973        C  0.78649291  0.11258052  0.24182307     0.77000
O974        O  0.82251706  0.08802562  0.32148281    -0.61400
O975        O  0.85306678  0.04561494  0.29079695    -0.52300
C976        C  0.74879166  0.99991257  0.31514707     0.69700
O977        O  0.74704143  0.03597990  0.29620824    -0.47200
C978        C  0.81152607  0.96047070  0.24454167     0.74400
O979        O  0.77007228  0.10503299  0.26773778    -0.59000
O980        O  0.82868862  0.96992002  0.26955781    -0.49100
O981        O  0.80835305  0.08137922  0.23614557    -0.55500
C982        C  0.85137995  0.07777605  0.31263658     0.84600
O983        O  0.77763126  0.98528073  0.32030570    -0.57400
O984        O  0.78936698  0.99110680  0.23849394    -0.60600
C985        C  0.58879091  0.11166169  0.30767884    -0.18400
C986        C  0.55717421  0.13094474  0.30700541    -0.20500
C987        C  0.52986895  0.10014560  0.30619817     0.20100
C988        C  0.53431359  0.04950674  0.30500929    -0.03500
C989        C  0.56618656  0.03006579  0.30581827    -0.06500
C990        C  0.59353785  0.06131370  0.30760670     0.20400
C991        C  0.57060250  0.97938976  0.30624137     0.18600
C992        C  0.54331205  0.94860920  0.30464977    -0.18000
C993        C  0.51168446  0.96791214  0.30374106    -0.20200
C994        C  0.50690549  0.01826015  0.30447529     0.20000
C995        C  0.97527584  0.03785364  0.30641214    -0.33200
C996        C  0.97089882  0.08812547  0.30961679     0.00700
C997        C  0.99821561  0.11907464  0.30822868    -0.24600
C998        C  0.62501231  0.04166480  0.31080127    -0.29100
C999        C  0.62929862  0.99128689  0.31299579     0.06400
C1000       C  0.60212520  0.96037306  0.30970014    -0.27800
H1001       H  0.60949599  0.13610983  0.30905897     0.11100
H1002       H  0.55405234  0.16993642  0.30791465     0.12300
H1003       H  0.54639986  0.90958841  0.30489060     0.11300
H1004       H  0.99094654  0.94344199  0.30332031     0.10600
H1005       H  0.95429413  0.01385352  0.30760486     0.16000
H1006       H  0.99492866  0.15796884  0.31031477     0.11900
H1007       H  0.64588085  0.06559234  0.31349323     0.14700
H1008       H  0.60537628  0.92139462  0.31103192     0.14500
C1009       C  0.68124874  0.69509360  0.17839630    -0.18400
C1010       C  0.71285860  0.71441145  0.17880348    -0.20500
C1011       C  0.71752609  0.76474767  0.17996555     0.20100
C1012       C  0.69009057  0.79599576  0.17921373    -0.03500
C1013       C  0.65822850  0.77653189  0.17864807    -0.06500
C1014       C  0.65386903  0.72584872  0.17908161     0.20400
C1015       C  0.63077597  0.80775116  0.17940573     0.18600
C1016       C  0.63545560  0.85811425  0.17932788    -0.18000
C1017       C  0.66705823  0.87742082  0.18002035    -0.20200
C1018       C  0.69441793  0.84663048  0.18071561     0.20000
C1019       C  0.72590686  0.86552673  0.18455056    -0.33200
C1020       C  0.75315411  0.83453379  0.18716841     0.00700
C1021       C  0.74898366  0.78429712  0.18357475    -0.24600
C1022       C  0.62229869  0.70681316  0.18206310    -0.29100
C1023       C  0.59503862  0.73772636  0.18497357     0.06400
C1024       C  0.59925470  0.78807515  0.18215271    -0.27800
H1025       H  0.67821377  0.65607087  0.17855216     0.11100
H1026       H  0.73362911  0.68994614  0.17923042     0.12300
H1027       H  0.61467335  0.88255858  0.17979371     0.11300
H1028       H  0.67007770  0.91641702  0.18098635     0.10600
H1029       H  0.72905327  0.90440787  0.18683259     0.16000
H1030       H  0.76991177  0.76027301  0.18559853     0.11900
H1031       H  0.61908867  0.66786067  0.18373924     0.14700
H1032       H  0.57830319  0.81202393  0.18439257     0.14500
C1033       C  0.55521089  0.62771269  0.05226921    -0.18400
C1034       C  0.58674903  0.60810923  0.05125767    -0.20500
C1035       C  0.59127614  0.55770170  0.05107306     0.20100
C1036       C  0.56373868  0.52673882  0.05048348    -0.03500
C1037       C  0.53193144  0.54651271  0.05125342    -0.06500
C1038       C  0.52775098  0.59718472  0.05293754     0.20400
C1039       C  0.50439888  0.51552805  0.05197010     0.18600
C1040       C  0.50892034  0.46514796  0.05077492    -0.18000
C1041       C  0.54047561  0.44552213  0.05027532    -0.20200
C1042       C  0.56796164  0.47600653  0.05080815     0.20000
C1043       C  0.59951148  0.45666381  0.05345584    -0.33200
C1044       C  0.62689086  0.48733845  0.05601935     0.00700
C1045       C  0.62275233  0.53773689  0.05335680    -0.24600
C1046       C  0.99629830  0.61636321  0.05688856    -0.29100
C1047       C  0.96893709  0.58561088  0.05937949     0.06400
C1048       C  0.97298081  0.53536376  0.05559827    -0.27800
H1049       H  0.55231755  0.66672758  0.05341405     0.11100
H1050       H  0.60760744  0.63235548  0.05165214     0.12300
H1051       H  0.98807156  0.44088024  0.05123270     0.11300
H1052       H  0.54338440  0.40647135  0.05038715     0.10600
H1053       H  0.60262587  0.41768521  0.05508485     0.16000
H1054       H  0.64376251  0.56153460  0.05538898     0.11900
H1055       H  0.99325958  0.65524714  0.05936851     0.14700
H1056       H  0.95197542  0.51151370  0.05757663     0.14500
C1057       C  0.75998292  0.96360457  0.05494214    -0.18400
C1058       C  0.79153491  0.94403433  0.05589437    -0.20500
C1059       C  0.81900765  0.97455678  0.05535475     0.20100
C1060       C  0.81480860  0.02512016  0.05253847    -0.03500
C1061       C  0.78299102  0.04486374  0.05173050    -0.06500
C1062       C  0.75545215  0.01397748  0.05353220     0.20400
C1063       C  0.77877498  0.09558075  0.05074856     0.18600
C1064       C  0.80625549  0.12599587  0.04904370    -0.18000
C1065       C  0.83781232  0.10639517  0.04967019    -0.20200
C1066       C  0.84234862  0.05610576  0.05209180     0.20000
C1067       C  0.87381168  0.03644371  0.05570103    -0.33200
C1068       C  0.87792873  0.98636763  0.06045882     0.00700
C1069       C  0.85051365  0.95554560  0.05914682    -0.24600
C1070       C  0.72399026  0.03408976  0.05569705    -0.29100
C1071       C  0.71988410  0.08460796  0.05695870     0.06400
C1072       C  0.74724936  0.11508257  0.05324553    -0.27800
H1073       H  0.73912911  0.93940700  0.05627589     0.11100
H1074       H  0.79443811  0.90509017  0.05792910     0.12300
H1075       H  0.80334726  0.16502686  0.04814136     0.11300
H1076       H  0.85866224  0.13066122  0.04920904     0.10600
H1077       H  0.89482975  0.06036711  0.05675223     0.16000
H1078       H  0.85355502  0.91676730  0.06238034     0.11900
H1079       H  0.70297762  0.01045910  0.05864525     0.14700
H1080       H  0.74413752  0.15412075  0.05381148     0.14500
C1081       C  0.88477292  0.85853377  0.42409761    -0.18400
C1082       C  0.91619413  0.87852152  0.42452175    -0.20500
C1083       C  0.94386683  0.84833949  0.42423158     0.20100
C1084       C  0.93997028  0.79765880  0.42200293    -0.03500
C1085       C  0.90827881  0.77747998  0.42185617    -0.06500
C1086       C  0.88057421  0.80807313  0.42356029     0.20400
C1087       C  0.90437820  0.72667404  0.42181574     0.18600
C1088       C  0.93204866  0.69658729  0.42002023    -0.18000
C1089       C  0.96347818  0.71661879  0.41987565    -0.20200
C1090       C  0.96769897  0.76701470  0.42169287     0.20000
C1091       C  0.49902838  0.78712420  0.42506745    -0.33200
C1092       C  0.50282662  0.83729894  0.42961898     0.00700
C1093       C  0.97525679  0.86780129  0.42791161    -0.24600
C1094       C  0.84930719  0.78765780  0.42664224    -0.29100
C1095       C  0.84555245  0.73715847  0.42910746     0.06400
C1096       C  0.87302529  0.70685452  0.42543290    -0.27800
H1097       H  0.86376728  0.88250166  0.42530918     0.11100
H1098       H  0.91884351  0.91753628  0.42605136     0.12300
H1099       H  0.92940843  0.65750561  0.41973725     0.11300
H1100       H  0.98449095  0.69260910  0.41946495     0.10600
H1101       H  0.52017599  0.76341704  0.42635797     0.16000
H1102       H  0.97807681  0.90662474  0.43093906     0.11900
H1103       H  0.82820235  0.81116912  0.42950466     0.14700
H1104       H  0.87015542  0.66782728  0.42689562     0.14500
C1105       C  0.79165682  0.44187981  0.30322365    -0.18400
C1106       C  0.75999992  0.46114202  0.30414298    -0.20500
C1107       C  0.75523019  0.51149235  0.30513061     0.20100
C1108       C  0.78259538  0.54277339  0.30382218    -0.03500
C1109       C  0.81448119  0.52337725  0.30269277    -0.06500
C1110       C  0.81898193  0.47270634  0.30318995     0.20400
C1111       C  0.84185174  0.55469608  0.30279305     0.18600
C1112       C  0.83707617  0.60503542  0.30280376    -0.18000
C1113       C  0.80546699  0.62426574  0.30407160    -0.20200
C1114       C  0.77819803  0.59341820  0.30523857     0.20000
C1115       C  0.74673154  0.61233228  0.30933423    -0.33200
C1116       C  0.71954299  0.58138835  0.31230343     0.00700
C1117       C  0.72375844  0.53108151  0.30900249    -0.24600
C1118       C  0.85066891  0.45381856  0.30557659    -0.29100
C1119       C  0.87785992  0.48491736  0.30783482     0.06400
C1120       C  0.87344298  0.53518694  0.30487812    -0.27800
H1121       H  0.79478427  0.40286727  0.30349501     0.11100
H1122       H  0.73928837  0.43664136  0.30504609     0.12300
H1123       H  0.85780814  0.62952930  0.30285061     0.11300
H1124       H  0.80237829  0.66326079  0.30502765     0.10600
H1125       H  0.74354984  0.65124402  0.31141751     0.16000
H1126       H  0.70286036  0.50709267  0.31134059     0.11900
H1127       H  0.85404302  0.41490754  0.30743584     0.14700
H1128       H  0.89432921  0.55926802  0.30668254     0.14500
C1129       C  0.93143742  0.19452556  0.17752882    -0.18400
C1130       C  0.96301298  0.21399560  0.17787639    -0.20500
C1131       C  0.96759737  0.26436825  0.17866083     0.20100
C1132       C  0.94009438  0.29547629  0.17788933    -0.03500
C1133       C  0.90825607  0.27584985  0.17725558    -0.06500
C1134       C  0.90397968  0.22514934  0.17778535     0.20400
C1135       C  0.88073394  0.30693958  0.17761515     0.18600
C1136       C  0.88532769  0.35732412  0.17763112    -0.18000
C1137       C  0.91689330  0.37678376  0.17851684    -0.20200
C1138       C  0.94433661  0.34614264  0.17921929     0.20000
C1139       C  0.97584424  0.36522727  0.18271858    -0.33200
C1140       C  0.50322152  0.33439324  0.18506423     0.00700
C1141       C  0.49906594  0.28409720  0.18180337    -0.24600
C1142       C  0.87238136  0.20597194  0.18023088    -0.29100
C1143       C  0.84496983  0.23675587  0.18241867     0.06400
C1144       C  0.84919099  0.28712970  0.17972655    -0.27800
H1145       H  0.92848568  0.15549130  0.17786082     0.11100
H1146       H  0.98383087  0.18962559  0.17843721     0.12300
H1147       H  0.86449434  0.38167878  0.17789209     0.11300
H1148       H  0.91982164  0.41579731  0.17942981     0.10600
H1149       H  0.97892904  0.40413784  0.18485067     0.16000
H1150       H  0.52005207  0.26016554  0.18371182     0.11900
H1151       H  0.86922819  0.16701240  0.18193279     0.14700
H1152       H  0.82816632  0.31101487  0.18152892     0.14500
C1153       C  0.66641981  0.37883012  0.42892893    -0.18400
C1154       C  0.63486974  0.35925521  0.42902232    -0.20500
C1155       C  0.63036520  0.30886132  0.42986442     0.20100
C1156       C  0.65792444  0.27784865  0.42935101    -0.03500
C1157       C  0.68971771  0.29756748  0.42903302    -0.06500
C1158       C  0.69391262  0.34828010  0.42953513     0.20400
C1159       C  0.71725890  0.26653399  0.42972860     0.18600
C1160       C  0.71276283  0.21614180  0.42973756    -0.18000
C1161       C  0.68123651  0.19658757  0.43025750    -0.20200
C1162       C  0.65376528  0.22715679  0.43064791     0.20000
C1163       C  0.62228924  0.20793774  0.43387655    -0.33200
C1164       C  0.59486861  0.23864990  0.43613802     0.00700
C1165       C  0.59891448  0.28898532  0.43286044    -0.24600
C1166       C  0.72544853  0.36751442  0.43225514    -0.29100
C1167       C  0.75284359  0.33674844  0.43471218     0.06400
C1168       C  0.74871505  0.28638773  0.43211754    -0.27800
H1169       H  0.66931308  0.41787304  0.42920634     0.11100
H1170       H  0.61400413  0.38354732  0.42935421     0.12300
H1171       H  0.73362667  0.19185390  0.43025571     0.11300
H1172       H  0.67834747  0.15755936  0.43116742     0.10600
H1173       H  0.61926409  0.16899574  0.43597271     0.16000
H1174       H  0.57785737  0.31280531  0.43467024     0.11900
H1175       H  0.72854617  0.40647697  0.43388316     0.14700
H1176       H  0.76973142  0.26252733  0.43411795     0.14500
C1177       C  0.56296233  0.21807038  0.94580125     0.79700
N1178       N  0.56222440  0.17548661  0.96223537    -0.78600
C1179       C  0.53386180  0.15689486  0.97382523     0.82100
N1180       N  0.00507330  0.18095173  0.96839106    -0.78600
C1181       C  0.50551915  0.22367437  0.95107564     0.82200
N1182       N  0.53456370  0.24206911  0.94026360    -0.80300
C1183       C  0.78477565  0.35712053  0.94427382     0.79700
N1184       N  0.78556116  0.39954200  0.96077823    -0.78600
C1185       C  0.81385930  0.41738884  0.97286987     0.82100
N1186       N  0.84252567  0.39279025  0.96783990    -0.78600
C1187       C  0.84206376  0.35029254  0.95041018     0.82200
N1188       N  0.81307536  0.33258433  0.93914627    -0.80300
In1189     In  0.92392303  0.28678187  0.90814450     1.36900
C1190       C  0.91186851  0.21152629  0.86871690     0.77000
O1191       O  0.91422512  0.33170450  0.86348189    -0.61400
O1192       O  0.95280687  0.35474709  0.89478633    -0.52300
C1193       C  0.87223708  0.32561899  0.93937318     0.69700
O1194       O  0.87071401  0.29121802  0.91915542    -0.47200
C1195       C  0.97539189  0.24788170  0.93957791     0.74400
O1196       O  0.89550913  0.21868446  0.89472121    -0.59000
O1197       O  0.97706685  0.28194175  0.91900049    -0.49100
O1198       O  0.93334949  0.24317981  0.86273461    -0.55500
C1199       C  0.93604866  0.36282965  0.86923384     0.84600
O1200       O  0.90105824  0.33805482  0.94673903    -0.57400
O1201       O  0.94651549  0.23554165  0.94700465    -0.60600
C1202       C  0.81296535  0.21634207  0.69206349     0.79700
N1203       N  0.81218365  0.17437118  0.70922752    -0.78600
C1204       C  0.78386110  0.15656554  0.72152075     0.82100
N1205       N  0.75511547  0.18076514  0.71598999    -0.78600
C1206       C  0.75555984  0.22279436  0.69786044     0.82200
N1207       N  0.78460918  0.24047453  0.68645777    -0.80300
C1208       C  0.53519881  0.35472522  0.69471405     0.79700
N1209       N  0.53596717  0.39699503  0.71143350    -0.78600
C1210       C  0.56433384  0.41524962  0.72309098     0.82100
N1211       N  0.59312593  0.39126794  0.71725881    -0.78600
C1212       C  0.59269417  0.34884572  0.69966884     0.82200
N1213       N  0.56360302  0.33068959  0.68895310    -0.80300
In1214     In  0.67389636  0.28635973  0.65476589     1.36900
C1215       C  0.68516414  0.36272878  0.61551765     0.77000
O1216       O  0.68576483  0.23959528  0.61125148    -0.61400
O1217       O  0.64292599  0.22190332  0.63829239    -0.52300
C1218       C  0.72539553  0.24721578  0.68642620     0.69700
O1219       O  0.72708328  0.28114031  0.66576243    -0.47200
C1220       C  0.62291944  0.32459471  0.68800371     0.74400
O1221       O  0.70219728  0.35453596  0.64083498    -0.59000
O1222       O  0.62135918  0.28755103  0.67004738    -0.49100
O1223       O  0.66332131  0.33149895  0.61001882    -0.55500
C1224       C  0.66190566  0.21109210  0.61484031     0.84600
O1225       O  0.69647016  0.23521789  0.69394088    -0.57400
O1226       O  0.65167303  0.34006845  0.69229383    -0.60600
C1227       C  0.90972882  0.46515477  0.81819646     0.79700
N1228       N  0.93802914  0.48936069  0.81253882    -0.78600
C1229       C  0.96693951  0.47238802  0.82460475     0.82100
N1230       N  0.96731383  0.43101884  0.84339518    -0.78600
C1231       C  0.93860596  0.40682837  0.84903039     0.82200
N1232       N  0.91040457  0.42389067  0.83611600    -0.80300
C1233       C  0.68766307  0.60185356  0.82216754     0.79700
N1234       N  0.68686425  0.64448308  0.83845529    -0.78600
C1235       C  0.65840522  0.66335943  0.84960337     0.82100
N1236       N  0.62961106  0.63963336  0.84378409    -0.78600
C1237       C  0.63014909  0.59689072  0.82660713     0.82200
N1238       N  0.65926574  0.57817566  0.81627890    -0.80300
In1239     In  0.54901351  0.53537845  0.78210755     1.36900
C1240       C  0.56179613  0.45968089  0.74288383     0.77000
O1241       O  0.52592031  0.48538467  0.82152771    -0.61400
O1242       O  0.49563968  0.52936488  0.79159461    -0.52300
C1243       C  0.60012500  0.57326651  0.81446925     0.69700
O1244       O  0.60198943  0.53939385  0.79384485    -0.47200
C1245       C  0.53709394  0.61251940  0.74409361     0.74400
O1246       O  0.57788062  0.46728131  0.76890315    -0.59000
O1247       O  0.52024762  0.60368133  0.76954724    -0.49100
O1248       O  0.54035501  0.49129675  0.73664719    -0.55500
C1249       C  0.49712211  0.49656224  0.81310840     0.84600
O1250       O  0.57119941  0.58601184  0.82135675    -0.57400
O1251       O  0.55900546  0.58156901  0.73790601    -0.60600
C1252       C  0.81396275  0.71638301  0.93973830     0.79700
N1253       N  0.81362867  0.67499361  0.95767058    -0.78600
C1254       C  0.78543970  0.65752625  0.97069663     0.82100
N1255       N  0.75659090  0.68144537  0.96519492    -0.78600
C1256       C  0.75667395  0.72276455  0.94639009     0.82200
N1257       N  0.78545189  0.74004656  0.93416963    -0.80300
C1258       C  0.53460041  0.85740455  0.94016521     0.79700
N1259       N  0.53517208  0.89893633  0.95777970    -0.78600
C1260       C  0.56336851  0.91620241  0.97061146     0.82100
N1261       N  0.59211712  0.89186287  0.96522219    -0.78600
C1262       C  0.59184969  0.85031351  0.94671246     0.82200
N1263       N  0.56298563  0.83327748  0.93470359    -0.80300
In1264     In  0.67412434  0.78600028  0.90533303     1.36900
C1265       C  0.66073040  0.70877058  0.86819066     0.77000
O1266       O  0.66667793  0.83186404  0.86054939    -0.61400
O1267       O  0.70305986  0.85471600  0.89455774    -0.52300
C1268       C  0.62207302  0.82567205  0.93559698     0.69700
O1269       O  0.62065546  0.79341092  0.91376239    -0.47200
C1270       C  0.72636878  0.74678757  0.93514623     0.74400
O1271       O  0.64598196  0.71649323  0.89510016    -0.59000
O1272       O  0.72756551  0.77727658  0.91207228    -0.49100
O1273       O  0.68094205  0.74118570  0.85994382    -0.55500
C1274       C  0.68770422  0.86336528  0.86819619     0.84600
O1275       O  0.65083765  0.83569101  0.94479788    -0.57400
O1276       O  0.69775730  0.73812750  0.94562814    -0.60600
C1277       C  0.90992613  0.96637943  0.57046767     0.79700
N1278       N  0.91075582  0.92439784  0.58758861    -0.78600
C1279       C  0.93912300  0.90632489  0.59942315     0.82100
N1280       N  0.96789506  0.93024092  0.59347161    -0.78600
C1281       C  0.96739966  0.97236761  0.57545310     0.82200
N1282       N  0.93829763  0.99029059  0.56446342    -0.80300
C1283       C  0.68805633  0.10568514  0.56649101     0.79700
N1284       N  0.68747955  0.14820693  0.58294494    -0.78600
C1285       C  0.65920738  0.16672224  0.59494285     0.82100
N1286       N  0.63038364  0.14259376  0.58983470    -0.78600
C1287       C  0.63067649  0.09988571  0.57257066     0.82200
N1288       N  0.65963177  0.08160259  0.56144353    -0.79500
In1289     In  0.54881985  0.03519063  0.53111450     1.36900
C1290       C  0.53635692  0.11183196  0.99290287     0.77000
O1291       O  0.57159039  0.08828612  0.56863903    -0.61400
O1292       O  0.60197454  0.03922240  0.54283705    -0.52300
C1293       C  0.49753272  0.99643419  0.56349323     0.69700
O1294       O  0.99573823  0.03041999  0.54288581    -0.47200
C1295       C  0.56077883  0.96000199  0.99109274     0.74400
O1296       O  0.51912380  0.10232704  0.01797126    -0.59000
O1297       O  0.57767514  0.96761513  0.01657910    -0.49100
O1298       O  0.55867005  0.08141787  0.98693879    -0.55500
C1299       C  0.60044097  0.07497843  0.56196021     0.84600
O1300       O  0.52649515  0.98405754  0.57048444    -0.57400
O1301       O  0.53887205  0.99128807  0.98580703    -0.60600
C1302       C  0.65875756  0.46688433  0.56594403     0.79700
N1303       N  0.68710410  0.49125766  0.56072693    -0.78600
C1304       C  0.71602771  0.47371795  0.57237832     0.82100
N1305       N  0.71634405  0.43152125  0.59030996    -0.78600
C1306       C  0.68763699  0.40705249  0.59548915     0.82200
N1307       N  0.65940579  0.42476305  0.58299346    -0.80300
C1308       C  0.93713358  0.60588356  0.56976816     0.79700
N1309       N  0.93656722  0.64767779  0.58701321    -0.78600
C1310       C  0.90831560  0.66585178  0.59922219     0.82100
N1311       N  0.87941274  0.64224367  0.59346219    -0.78600
C1312       C  0.87969502  0.60026132  0.57537336     0.82200
N1313       N  0.90867307  0.58224284  0.56407212    -0.80300
In1314     In  0.79859378  0.53790054  0.53103987     1.36900
C1315       C  0.81137069  0.46197226  0.99234239     0.77000
O1316       O  0.77509402  0.48624763  0.56930751    -0.61400
O1317       O  0.74503860  0.53305516  0.54130266    -0.52300
C1318       C  0.84952069  0.57630427  0.56366459     0.69700
O1319       O  0.85134757  0.54136604  0.54388834    -0.47200
C1320       C  0.78789474  0.61374059  0.99127382     0.74400
O1321       O  0.82742284  0.46976115  0.01834871    -0.59000
O1322       O  0.77004320  0.60540336  0.01612009    -0.49100
O1323       O  0.79003982  0.49360509  0.98578931    -0.55500
C1324       C  0.74632594  0.49853488  0.56156523     0.84600
O1325       O  0.82057455  0.58972985  0.56989739    -0.57400
O1326       O  0.81021867  0.58290877  0.98652247    -0.60600
C1327       C  0.56324903  0.71738673  0.69523840     0.79700
N1328       N  0.53479015  0.74121285  0.68967968    -0.78600
C1329       C  0.50585572  0.72316786  0.70106551     0.82100
N1330       N  0.00560691  0.68103324  0.71904784    -0.78600
C1331       C  0.53447498  0.65721220  0.72459964     0.82200
N1332       N  0.56271344  0.67537865  0.71236874    -0.80300
C1333       C  0.78500546  0.85471029  0.69720501     0.79700
N1334       N  0.81344081  0.83093817  0.69128184    -0.78600
C1335       C  0.84249410  0.84922435  0.70194578     0.82100
N1336       N  0.84289121  0.89164739  0.71952598    -0.78600
C1337       C  0.81403728  0.91540908  0.72546962     0.82200
N1338       N  0.78568445  0.89692253  0.71397111    -0.80300
In1339     In  0.92398705  0.78587128  0.65814398     1.36900
C1340       C  0.91112082  0.71010506  0.61912829     0.77000
O1341       O  0.91484381  0.83070040  0.61315530    -0.61400
O1342       O  0.95301805  0.85372938  0.64492984    -0.52300
C1343       C  0.87264636  0.82509900  0.69011990     0.69700
O1344       O  0.87091487  0.79038676  0.67016239    -0.47200
C1345       C  0.97562436  0.74706300  0.68948695     0.74400
O1346       O  0.89431252  0.71870308  0.64462840    -0.59000
O1347       O  0.97719537  0.78035861  0.66834899    -0.49100
O1348       O  0.93336247  0.74067777  0.61338071    -0.55500
C1349       C  0.93658597  0.86186376  0.61918961     0.84600
O1350       O  0.90156138  0.83805533  0.69663276    -0.57400
O1351       O  0.94676695  0.73527883  0.69742642    -0.60600
C1352       C  0.66119386  0.97068460  0.82243691     0.79700
N1353       N  0.66193823  0.92782401  0.83848860    -0.78600
C1354       C  0.69030768  0.90886219  0.84961267     0.82100
N1355       N  0.71913783  0.93275634  0.84396640    -0.78600
C1356       C  0.71867969  0.97584844  0.82704030     0.82200
N1357       N  0.68959189  0.99466144  0.81679274    -0.80300
C1358       C  0.93882192  0.10829546  0.81906698     0.79700
N1359       N  0.93788863  0.14995610  0.83643379    -0.78600
C1360       C  0.90948112  0.16763627  0.84852318     0.82100
N1361       N  0.88079946  0.14364563  0.84261557    -0.78600
C1362       C  0.88141704  0.10196165  0.82426735     0.82200
N1363       N  0.91053849  0.08437107  0.81301489    -0.80300
In1364     In  0.79968794  0.03806610  0.78206424     1.36900
C1365       C  0.78649296  0.11258069  0.74182306     0.77000
O1366       O  0.82251706  0.08802572  0.82148299    -0.61400
O1367       O  0.85306682  0.04561513  0.79079696    -0.52300
C1368       C  0.74879173  0.99991274  0.81514711     0.69700
O1369       O  0.74704141  0.03598004  0.79620827    -0.47200
C1370       C  0.81152615  0.96047084  0.74454167     0.74400
O1371       O  0.77007233  0.10503293  0.76773769    -0.59000
O1372       O  0.82868869  0.96991997  0.76955791    -0.49100
O1373       O  0.80835300  0.08137938  0.73614554    -0.55500
C1374       C  0.85137994  0.07777625  0.81263659     0.84600
O1375       O  0.77763137  0.98528080  0.82030553    -0.57400
O1376       O  0.78936695  0.99110690  0.73849396    -0.60600
C1377       C  0.58879104  0.11166164  0.80767883    -0.18400
C1378       C  0.55717438  0.13094477  0.80700539    -0.20500
C1379       C  0.52986903  0.10014536  0.80619817     0.20100
C1380       C  0.53431368  0.04950671  0.80500929    -0.03500
C1381       C  0.56618663  0.03006583  0.80581828    -0.06500
C1382       C  0.59353798  0.06131388  0.80760669     0.20400
C1383       C  0.57060257  0.97938966  0.80624146     0.18600
C1384       C  0.54331214  0.94860905  0.80464986    -0.18000
C1385       C  0.51168453  0.96791196  0.80374116    -0.20200
C1386       C  0.50690558  0.01826006  0.80447532     0.20000
C1387       C  0.97527574  0.03785359  0.80641213    -0.33200
C1388       C  0.97089876  0.08812521  0.80961678     0.00700
C1389       C  0.99821557  0.11907438  0.80822865    -0.24600
C1390       C  0.62501235  0.04166503  0.81080128    -0.29100
C1391       C  0.62929869  0.99128715  0.81299587     0.06400
C1392       C  0.60212531  0.96037309  0.80970017    -0.27800
H1393       H  0.60949647  0.13610988  0.80905894     0.11100
H1394       H  0.55405259  0.16993620  0.80791492     0.12300
H1395       H  0.54639988  0.90958775  0.80489130     0.11300
H1396       H  0.99094649  0.94344241  0.80332033     0.10600
H1397       H  0.95429397  0.01385365  0.80760491     0.16000
H1398       H  0.99492853  0.15796793  0.81031473     0.11900
H1399       H  0.64588103  0.06559293  0.81349332     0.14700
H1400       H  0.60537646  0.92139475  0.81103203     0.14500
C1401       C  0.68124872  0.69509377  0.67839629    -0.18400
C1402       C  0.71285863  0.71441151  0.67880348    -0.20500
C1403       C  0.71752617  0.76474762  0.67996557     0.20100
C1404       C  0.69009061  0.79599580  0.67921374    -0.03500
C1405       C  0.65822849  0.77653188  0.67864809    -0.06500
C1406       C  0.65386902  0.72584893  0.67908162     0.20400
C1407       C  0.63077588  0.80775111  0.67940575     0.18600
C1408       C  0.63545557  0.85811411  0.67932788    -0.18000
C1409       C  0.66705817  0.87742092  0.68002034    -0.20200
C1410       C  0.69441794  0.84663062  0.68071562     0.20000
C1411       C  0.72590691  0.86552681  0.68455059    -0.33200
C1412       C  0.75315413  0.83453374  0.68716843     0.00700
C1413       C  0.74898375  0.78429702  0.68357477    -0.24600
C1414       C  0.62229868  0.70681328  0.68206312    -0.29100
C1415       C  0.59503853  0.73772649  0.68497355     0.06400
C1416       C  0.59925461  0.78807513  0.68215273    -0.27800
H1417       H  0.67821375  0.65607168  0.67855215     0.11100
H1418       H  0.73362891  0.68994587  0.67923044     0.12300
H1419       H  0.61467317  0.88255832  0.67979367     0.11300
H1420       H  0.67007761  0.91641716  0.68098662     0.10600
H1421       H  0.72905349  0.90440801  0.68683259     0.16000
H1422       H  0.76991194  0.76027299  0.68559848     0.11900
H1423       H  0.61908869  0.66786086  0.68373930     0.14700
H1424       H  0.57830285  0.81202413  0.68439255     0.14500
C1425       C  0.55521096  0.62771261  0.55226921    -0.18400
C1426       C  0.58674907  0.60810919  0.55125769    -0.20500
C1427       C  0.59127613  0.55770161  0.55107304     0.20100
C1428       C  0.56373867  0.52673882  0.55048347    -0.03500
C1429       C  0.53193146  0.54651273  0.55125344    -0.06500
C1430       C  0.52775104  0.59718471  0.55293755     0.20400
C1431       C  0.50439891  0.51552805  0.55197012     0.18600
C1432       C  0.50892035  0.46514781  0.55077494    -0.18000
C1433       C  0.54047567  0.44552204  0.55027532    -0.20200
C1434       C  0.56796166  0.47600649  0.55080806     0.20000
C1435       C  0.59951156  0.45666375  0.55345571    -0.33200
C1436       C  0.62689084  0.48733831  0.55601929     0.00700
C1437       C  0.62275237  0.53773683  0.55335672    -0.24600
C1438       C  0.99629833  0.61636296  0.55688855    -0.29100
C1439       C  0.96893693  0.58561070  0.55937955     0.06400
C1440       C  0.97298067  0.53536365  0.55559835    -0.27800
H1441       H  0.55231753  0.66672754  0.55341405     0.11100
H1442       H  0.60760750  0.63235569  0.55165215     0.12300
H1443       H  0.98807144  0.44087947  0.55123272     0.11300
H1444       H  0.54338471  0.40647132  0.55038710     0.10600
H1445       H  0.60262617  0.41768507  0.55508421     0.16000
H1446       H  0.64376220  0.56153437  0.55538907     0.11900
H1447       H  0.99325971  0.65524698  0.55936851     0.14700
H1448       H  0.95197496  0.51151312  0.55757669     0.14500
C1449       C  0.75998300  0.96360463  0.55494213    -0.18400
C1450       C  0.79153502  0.94403442  0.55589436    -0.20500
C1451       C  0.81900780  0.97455659  0.55535476     0.20100
C1452       C  0.81480871  0.02512003  0.55253848    -0.03500
C1453       C  0.78299111  0.04486359  0.55173050    -0.06500
C1454       C  0.75545224  0.01397756  0.55353221     0.20400
C1455       C  0.77877510  0.09558044  0.55074858     0.18600
C1456       C  0.80625562  0.12599559  0.54904370    -0.18000
C1457       C  0.83781238  0.10639491  0.54967019    -0.20200
C1458       C  0.84234868  0.05610561  0.55209180     0.20000
C1459       C  0.87381169  0.03644344  0.55570104    -0.33200
C1460       C  0.87792873  0.98636726  0.56045884     0.00700
C1461       C  0.85051371  0.95554533  0.55914685    -0.24600
C1462       C  0.72399028  0.03408981  0.55569708    -0.29100
C1463       C  0.71988412  0.08460801  0.55695874     0.06400
C1464       C  0.74724950  0.11508241  0.55324555    -0.27800
H1465       H  0.73912944  0.93940713  0.55627588     0.11100
H1466       H  0.79443806  0.90509016  0.55792909     0.12300
H1467       H  0.80334765  0.16502621  0.54814136     0.11300
H1468       H  0.85866221  0.13066108  0.54920904     0.10600
H1469       H  0.89482990  0.06036665  0.55675219     0.16000
H1470       H  0.85355504  0.91676657  0.56238044     0.11900
H1471       H  0.70297781  0.01045906  0.55864527     0.14700
H1472       H  0.74413785  0.15412065  0.55381153     0.14500
C1473       C  0.88477289  0.85853400  0.92409778    -0.18400
C1474       C  0.91619408  0.87852164  0.92452185    -0.20500
C1475       C  0.94386680  0.84833982  0.92423160     0.20100
C1476       C  0.93997027  0.79765915  0.92200297    -0.03500
C1477       C  0.90827880  0.77748035  0.92185625    -0.06500
C1478       C  0.88057417  0.80807336  0.92356035     0.20400
C1479       C  0.90437812  0.72667455  0.92181574     0.18600
C1480       C  0.93204847  0.69658757  0.92002022    -0.18000
C1481       C  0.96347812  0.71661897  0.91987563    -0.20200
C1482       C  0.96769889  0.76701501  0.92169287     0.20000
C1483       C  0.49902831  0.78712422  0.92506742    -0.33200
C1484       C  0.50282667  0.83729901  0.92961900     0.00700
C1485       C  0.97525674  0.86780143  0.92791162    -0.24600
C1486       C  0.84930714  0.78765780  0.92664241    -0.29100
C1487       C  0.84555239  0.73715859  0.92910757     0.06400
C1488       C  0.87302518  0.70685474  0.92543294    -0.27800
H1489       H  0.86376714  0.88250206  0.92530956     0.11100
H1490       H  0.91884370  0.91753657  0.92605135     0.12300
H1491       H  0.92940829  0.65750638  0.91973723     0.11300
H1492       H  0.98449047  0.69260919  0.91946491     0.10600
H1493       H  0.52017597  0.76341674  0.92635826     0.16000
H1494       H  0.97807674  0.90662544  0.93093905     0.11900
H1495       H  0.82820228  0.81116893  0.92950450     0.14700
H1496       H  0.87015539  0.66782802  0.92689565     0.14500
C1497       C  0.79165688  0.44187955  0.80322367    -0.18400
C1498       C  0.75999990  0.46114164  0.80414299    -0.20500
C1499       C  0.75523015  0.51149208  0.80513062     0.20100
C1500       C  0.78259537  0.54277319  0.80382219    -0.03500
C1501       C  0.81448129  0.52337703  0.80269277    -0.06500
C1502       C  0.81898202  0.47270608  0.80318997     0.20400
C1503       C  0.84185185  0.55469587  0.80279296     0.18600
C1504       C  0.83707615  0.60503507  0.80280369    -0.18000
C1505       C  0.80546688  0.62426544  0.80407152    -0.20200
C1506       C  0.77819797  0.59341796  0.80523857     0.20000
C1507       C  0.74673151  0.61233224  0.80933425    -0.33200
C1508       C  0.71954300  0.58138822  0.81230341     0.00700
C1509       C  0.72375842  0.53108139  0.80900249    -0.24600
C1510       C  0.85066897  0.45381857  0.80557662    -0.29100
C1511       C  0.87785999  0.48491741  0.80783484     0.06400
C1512       C  0.87344312  0.53518699  0.80487811    -0.27800
H1513       H  0.79478453  0.40286656  0.80349502     0.11100
H1514       H  0.73928815  0.43664096  0.80504611     0.12300
H1515       H  0.85780780  0.62952886  0.80284997     0.11300
H1516       H  0.80237825  0.66326001  0.80502761     0.10600
H1517       H  0.74354983  0.65124391  0.81141753     0.16000
H1518       H  0.70286024  0.50709264  0.81134062     0.11900
H1519       H  0.85404304  0.41490729  0.80743587     0.14700
H1520       H  0.89432943  0.55926824  0.80668275     0.14500
C1521       C  0.93143736  0.19452572  0.67752883    -0.18400
C1522       C  0.96301291  0.21399565  0.67787640    -0.20500
C1523       C  0.96759725  0.26436830  0.67866080     0.20100
C1524       C  0.94009433  0.29547641  0.67788922    -0.03500
C1525       C  0.90825614  0.27585000  0.67725557    -0.06500
C1526       C  0.90397976  0.22514966  0.67778535     0.20400
C1527       C  0.88073414  0.30693968  0.67761515     0.18600
C1528       C  0.88532774  0.35732433  0.67763107    -0.18000
C1529       C  0.91689322  0.37678393  0.67851669    -0.20200
C1530       C  0.94433653  0.34614292  0.67921917     0.20000
C1531       C  0.97584419  0.36522749  0.68271842    -0.33200
C1532       C  0.50322141  0.33439345  0.68506412     0.00700
C1533       C  0.49906587  0.28409732  0.68180336    -0.24600
C1534       C  0.87238146  0.20597205  0.68023086    -0.29100
C1535       C  0.84496997  0.23675598  0.68241866     0.06400
C1536       C  0.84919111  0.28712982  0.67972651    -0.27800
H1537       H  0.92848549  0.15549192  0.67786081     0.11100
H1538       H  0.98383075  0.18962537  0.67843723     0.12300
H1539       H  0.86449440  0.38167892  0.67789219     0.11300
H1540       H  0.91982146  0.41579804  0.67942915     0.10600
H1541       H  0.97892902  0.40413807  0.68485010     0.16000
H1542       H  0.52005166  0.26016594  0.68371188     0.11900
H1543       H  0.86922837  0.16701302  0.68193277     0.14700
H1544       H  0.82816675  0.31101449  0.68152887     0.14500
C1545       C  0.66641991  0.37882985  0.92892892    -0.18400
C1546       C  0.63486985  0.35925499  0.92902231    -0.20500
C1547       C  0.63036531  0.30886123  0.92986442     0.20100
C1548       C  0.65792450  0.27784859  0.92935101    -0.03500
C1549       C  0.68971779  0.29756732  0.92903303    -0.06500
C1550       C  0.69391278  0.34828002  0.92953515     0.20400
C1551       C  0.71725893  0.26653374  0.92972862     0.18600
C1552       C  0.71276292  0.21614134  0.92973758    -0.18000
C1553       C  0.68123651  0.19658732  0.93025752    -0.20200
C1554       C  0.65376533  0.22715676  0.93064791     0.20000
C1555       C  0.62228927  0.20793768  0.93387656    -0.33200
C1556       C  0.59486869  0.23864992  0.93613801     0.00700
C1557       C  0.59891456  0.28898537  0.93286044    -0.24600
C1558       C  0.72544863  0.36751449  0.93225518    -0.29100
C1559       C  0.75284355  0.33674858  0.93471217     0.06400
C1560       C  0.74871496  0.28638780  0.93211755    -0.27800
H1561       H  0.66931299  0.41787232  0.92920633     0.11100
H1562       H  0.61400445  0.38354739  0.92935423     0.12300
H1563       H  0.73362695  0.19185336  0.93025572     0.11300
H1564       H  0.67834722  0.15755883  0.93116745     0.10600
H1565       H  0.61926424  0.16899609  0.93597263     0.16000
H1566       H  0.57785779  0.31280529  0.93467021     0.11900
H1567       H  0.72854639  0.40647755  0.93388326     0.14700
H1568       H  0.76973137  0.26252756  0.93411795     0.14500
loop_ 
_geom_bond_atom_site_label_1 
_geom_bond_atom_site_label_2 
_geom_bond_distance 
_geom_bond_site_symmetry_2 
_ccdc_geom_bond_type 
C1            N2   1.348       .  A
C1            N6   1.354       .  A
C1          C380   1.473       .  S
N2            C3   1.349       .  A
C3          N788   1.368       .  A
C3          C114   1.464       .  S
N4          C787   1.368       .  A
N4          C789   1.369       .  A
C5            N6   1.361       .  A
C5          N788   1.369       .  A
C5          C803   1.475   1_455  S
C7            N8   1.348       .  A
C7           N12   1.355       .  A
C7          C383   1.473       .  S
N8            C9   1.350       .  A
C9           N10   1.368       .  A
C9          C139   1.464       .  S
N10          C11   1.369       .  A
C11          N12   1.361       .  A
C11          C17   1.476       .  S
In13         O15   2.222       .  S
In13         O16   2.279       .  S
In13         O24   2.302       .  S
In13         O18   2.220       .  S
In13         O20   2.276       .  S
In13         O21   2.220       .  S
In13         O22   2.227       .  S
In13         O25   2.304       .  S
C14         C184   1.464       .  S
C14          O20   1.259       .  A
C14          O22   1.261       .  A
O15          C23   1.261       .  A
O16          C23   1.259       .  A
C17          O24   1.263       .  A
C17          O18   1.255       .  A
C19         C789   1.475       .  S
C19          O21   1.255       .  A
C19          O25   1.263       .  A
C23          C55   1.464       .  S
C26          N27   1.348       .  A
C26          N31   1.355       .  A
C26         C359   1.475       .  S
N27          C28   1.350       .  A
C28          N29   1.369       .  A
C28         C189   1.467       .  S
N29          C30   1.370       .  A
C30          N31   1.362       .  A
C30          C42   1.478       .  S
C32          N33   1.349       .  A
C32          N37   1.355       .  A
C32         C356   1.476       .  S
N33          C34   1.350       .  A
C34          N35   1.369       .  A
C34          C64   1.468       .  S
N35          C36   1.370       .  A
C36          N37   1.362       .  A
C36          C44   1.480       .  S
In38         O40   2.234       .  S
In38         O41   2.284       .  S
In38         O49   2.310       .  S
In38         O43   2.223       .  S
In38         O45   2.277       .  S
In38         O46   2.231       .  S
In38         O47   2.235       .  S
In38         O50   2.305       .  S
C39         C130   1.468       .  S
C39          O45   1.258       .  A
C39          O47   1.261       .  A
O40          C48   1.260       .  A
O41          C48   1.258       .  A
C42          O49   1.263       .  A
C42          O43   1.254       .  A
C44          O46   1.256       .  A
C44          O50   1.262       .  A
C48         C109   1.470       .  S
C51          N52   1.354       .  A
C51          N56   1.348       .  A
C51         C335   1.472       .  S
N52          C53   1.361       .  A
C53          N54   1.369       .  A
C53         C857   1.475       .  S
N54          C55   1.368       .  A
C55          N56   1.350       .  A
C57          N58   1.349       .  A
C57          N62   1.354       .  A
C57         C332   1.473       .  S
N58          C59   1.350       .  A
C59          N60   1.368       .  A
C59          C89   1.465       .  S
N60          C61   1.369       .  A
C61          N62   1.361       .  A
C61          C67   1.475       .  S
In63         O65   2.304       .  S
In63         O66   2.219   1_455  S
In63         O74   2.303       .  S
In63         O68   2.219       .  S
In63         O70   2.280       .  S
In63         O71   2.276       .  S
In63         O72   2.233       .  S
In63         O75   2.227       .  S
C64          O70   1.259       .  A
C64          O72   1.261       .  A
O65          C73   1.263   1_455  A
O66          C73   1.254       .  A
C67          O74   1.263       .  A
C67          O68   1.255       .  A
C69         C155   1.465       .  S
C69          O71   1.259       .  A
C69          O75   1.261       .  A
C73         C837   1.475       .  S
C76          N77   1.351       .  A
C76          N81   1.354       .  A
C76         C311   1.475       .  S
N77          C78   1.353       .  A
C78          N79   1.368       .  A
C78         C144   1.468       .  S
N79          C80   1.368       .  A
C80          N81   1.360       .  A
C80          C94   1.476       .  S
C82          N83   1.350       .  A
C82          N87   1.354       .  A
C82         C308   1.476       .  S
N83          C84   1.352       .  A
C84          N85   1.369       .  A
C84         C119   1.469       .  S
N85          C86   1.370       .  A
C86          N87   1.361       .  A
C86          C92   1.478       .  S
In88         O90   2.226       .  S
In88         O91   2.275       .  S
In88         O99   2.307       .  S
In88         O93   2.219       .  S
In88         O95   2.275       .  S
In88         O96   2.213       .  S
In88         O97   2.229       .  S
In88        O100   2.306       .  S
C89          O95   1.259       .  A
C89          O97   1.261       .  A
O90          C98   1.262       .  A
O91          C98   1.259       .  A
C92          O99   1.264       .  A
C92          O93   1.255       .  A
C94          O96   1.255       .  A
C94         O100   1.265       .  A
C98         C178   1.465       .  S
C101        N102   1.348       .  A
C101        N106   1.355       .  A
C101        C284   1.475       .  S
N102        C103   1.349       .  A
C103        N104   1.369       .  A
C103        C173   1.465       .  S
N104        C105   1.370       .  A
C105        N106   1.362       .  A
C105        C901   1.478       .  S
C107        N108   1.349       .  A
C107        N112   1.354       .  A
C107        C287   1.474       .  S
N108        C109   1.351       .  A
C109        N110   1.369       .  A
N110        C111   1.370       .  A
C111        N112   1.361       .  A
C111        C123   1.479       .  S
In113       O115   2.308       .  S
In113       O116   2.226       .  S
In113       O124   2.309   1_545  S
In113       O902   2.222   1_455  S
In113       O512   2.275       .  S
In113       O513   2.281   1_545  S
In113       O514   2.226   1_554  S
In113       O517   2.234   1_544  S
C114        O120   1.258       .  A
C114        O122   1.261       .  A
O115        C123   1.263       .  A
O116        C123   1.255       .  A
C117        C889   1.478       .  S
C117        O124   1.264   1_655  A
C117        O902   1.254   1_565  A
O118       In897   2.222       .  S
O118        C901   1.254   1_545  A
C119        O121   1.259       .  A
C119        O125   1.261       .  A
O120       In505   2.275       .  S
O121       In505   2.281   1_565  S
O122       In505   2.226       .  S
O125       In505   2.234   1_565  S
C126        N127   1.355       .  A
C126        N131   1.349       .  A
C126        C260   1.474       .  S
N127        C128   1.361       .  A
C128        N129   1.369       .  A
C128        C148   1.479       .  S
N129        C130   1.369       .  A
C130        N131   1.351       .  A
C132        N133   1.348       .  A
C132        N137   1.354       .  A
C132        C263   1.474       .  S
N133        C134   1.350       .  A
C134        N135   1.369       .  A
C134        C164   1.468       .  S
N135        C136   1.370       .  A
C136        N137   1.361       .  A
C136        C142   1.478       .  S
In138       O140   2.307       .  S
In138       O141   2.229       .  S
In138       O149   2.309       .  S
In138       O143   2.220       .  S
In138       O537   2.276       .  S
In138       O538   2.277       .  S
In138       O539   2.229   1_554  S
In138       O542   2.232   1_554  S
C139        O145   1.258       .  A
C139        O147   1.261       .  A
O140        C148   1.263       .  A
O141        C148   1.255       .  A
C142        O149   1.263       .  A
C142        O143   1.255       .  A
C144        O146   1.259       .  A
C144        O150   1.261       .  A
O145       In530   2.276       .  S
O146       In530   2.277       .  S
O147       In530   2.229       .  S
O150       In530   2.232       .  S
C151        N152   1.354       .  A
C151        N156   1.348       .  A
C151        C239   1.473       .  S
N152        C153   1.361       .  A
C153        N938   1.369       .  A
C153        C953   1.476   1_455  S
N154        C937   1.369       .  A
N154        C939   1.368       .  A
C155        N156   1.350       .  A
C155        N938   1.368       .  A
C157        N158   1.354       .  A
C157        N162   1.348       .  A
C157        C236   1.474       .  S
N158        C159   1.361       .  A
C159        N160   1.370       .  A
C159        C167   1.478       .  S
N160        C161   1.369       .  A
C161        N162   1.350       .  A
C161        C194   1.467       .  S
In163       O165   2.227       .  S
In163       O166   2.278       .  S
In163       O174   2.308       .  S
In163       O168   2.224       .  S
In163       O170   2.283       .  S
In163       O171   2.218       .  S
In163       O172   2.230       .  S
In163       O175   2.308       .  S
C164        O170   1.259       .  A
C164        O172   1.261       .  A
O165        C173   1.261       .  A
O166        C173   1.258       .  A
C167        O174   1.263       .  A
C167        O168   1.255       .  A
C169        C937   1.476       .  S
C169        O171   1.254       .  A
C169        O175   1.263       .  A
C176        N177   1.347       .  A
C176        N181   1.354       .  A
C176        C215   1.472       .  S
N177        C178   1.349       .  A
C178        N179   1.368       .  A
N179        C180   1.370       .  A
C180        N181   1.361       .  A
C180        C192   1.477       .  S
C182        N183   1.348       .  A
C182        N187   1.354       .  A
C182        C212   1.473       .  S
N183        C184   1.349       .  A
C184        N185   1.368       .  A
N185        C186   1.369       .  A
C186        N187   1.361       .  A
C186        C198   1.475       .  S
In188       O190   2.307       .  S
In188       O191   2.220       .  S
In188       O199   2.302   1_545  S
In188       O193   2.224       .  S
In188       O195   2.281       .  S
In188       O196   2.278   1_545  S
In188       O197   2.231       .  S
In188       O200   2.228   1_545  S
C189        O195   1.258       .  A
C189        O197   1.260       .  A
O190        C198   1.263       .  A
O191        C198   1.254       .  A
C192        O199   1.263       .  A
C192        O193   1.256   1_565  A
C194        O196   1.259       .  A
C194        O200   1.262       .  A
C201        C202   1.397       .  A
C201        C206   1.402       .  A
C201        H217   1.084       .  S
C202        C203   1.403       .  A
C202        H218   1.084       .  S
C203        C204   1.409       .  A
C203        C997   1.396   1_455  A
C204        C210   1.414       .  A
C204        C205   1.408       .  A
C205        C207   1.409   1_545  A
C205        C206   1.414       .  A
C206        C214   1.401       .  A
C207        C216   1.397       .  A
C207        C208   1.403       .  A
C208        C209   1.397       .  A
C208        H219   1.084       .  S
C209        C210   1.403   1_565  A
C209       H1004   1.084   1_455  S
C210        C995   1.402   1_455  A
C211        C212   1.404       .  A
C211        C994   1.402       .  A
C211        H221   1.084       .  S
C212        C213   1.406       .  A
C213        C987   1.396       .  A
C213        H222   1.084       .  S
C214        C215   1.403   1_545  A
C214        H223   1.084       .  S
C215        C216   1.407       .  A
C216        H224   1.084       .  S
H220        C993   1.084       .  S
C225        C226   1.397       .  A
C225        C230   1.403       .  A
C225        H241   1.084       .  S
C226        C227   1.402       .  A
C226        H242   1.084       .  S
C227        C237   1.402       .  A
C227        C228   1.413       .  A
C228        C234   1.409       .  A
C228        C229   1.409       .  A
C229        C231   1.413       .  A
C229        C230   1.409       .  A
C230        C238   1.398       .  A
C231        C240   1.402       .  A
C231        C232   1.402       .  A
C232        C233   1.397       .  A
C232        H243   1.084       .  S
C233        C234   1.403       .  A
C233        H244   1.084       .  S
C234        C235   1.397       .  A
C235        C236   1.407       .  A
C235        H245   1.084       .  S
C236        C237   1.404       .  A
C237        H246   1.084       .  S
C238        C239   1.407       .  A
C238        H247   1.084       .  S
C239        C240   1.404       .  A
C240        H248   1.084       .  S
C249        C250   1.397       .  A
C249        C254   1.403       .  A
C249        H265   1.084       .  S
C250        C251   1.402       .  A
C250        H266   1.084       .  S
C251        C261   1.401       .  A
C251        C252   1.413       .  A
C252        C258   1.410       .  A
C252        C253   1.409       .  A
C253        C255   1.413       .  A
C253        C254   1.410       .  A
C254       C1046   1.398   1_455  A
C255        C256   1.403       .  A
C255       C1048   1.402   1_455  A
C256        C257   1.398       .  A
C256       H1051   1.084   1_455  S
C257        C258   1.403       .  A
C257        H268   1.084       .  S
C258        C259   1.399       .  A
C259        C260   1.407       .  A
C259        H269   1.084       .  S
C260        C261   1.404       .  A
C261        H270   1.084       .  S
C262        C263   1.407       .  A
C262       C1038   1.398       .  A
C262        H271   1.084       .  S
C263        C264   1.404       .  A
C264       C1039   1.402       .  A
C264        H272   1.084       .  S
H267       C1040   1.084       .  S
C273        C274   1.397       .  A
C273        C278   1.403   1_565  A
C273        H289   1.084       .  S
C274        C275   1.404       .  A
C274        H290   1.084       .  S
C275        C285   1.398       .  A
C275        C276   1.409   1_565  A
C276        C282   1.413       .  A
C276        C277   1.409       .  A
C277        C279   1.410       .  A
C277        C278   1.413       .  A
C278        C286   1.402       .  A
C279        C288   1.399       .  A
C279        C280   1.403       .  A
C280        C281   1.398       .  A
C280        H291   1.084       .  S
C281        C282   1.402       .  A
C281        H292   1.084       .  S
C282        C283   1.402       .  A
C283        C284   1.404   1_545  A
C283        H293   1.084       .  S
C284        C285   1.408       .  A
C285        H294   1.084       .  S
C286        C287   1.404       .  A
C286        H295   1.084       .  S
C287        C288   1.407       .  A
C288        H296   1.084       .  S
C297        C298   1.397       .  A
C297        C302   1.403       .  A
C297        H313   1.084       .  S
C298        C299   1.403       .  A
C298        H314   1.084       .  S
C299        C309   1.399       .  A
C299        C300   1.410       .  A
C300        C306   1.413       .  A
C300        C301   1.410       .  A
C301        C303   1.410       .  A
C301        C302   1.413       .  A
C302        C310   1.401       .  A
C303        C312   1.400       .  A
C303        C304   1.403       .  A
C304        C305   1.398       .  A
C304        H315   1.084       .  S
C305        C306   1.403       .  A
C305        H316   1.084       .  S
C306       C1091   1.402       .  A
C307        C308   1.405   1_655  A
C307       C1090   1.402       .  A
C307        H317   1.084   1_655  S
C308       C1093   1.407   1_455  A
C309       C1092   1.407       .  A
C309        H318   1.084       .  S
C310        C311   1.405       .  A
C310        H319   1.084       .  S
C311        C312   1.406       .  A
C312        H320   1.084       .  S
C321        C322   1.398       .  A
C321        C326   1.404       .  A
C321        H337   1.084       .  S
C322        C323   1.403       .  A
C322        H338   1.084       .  S
C323        C333   1.402       .  A
C323        C324   1.413       .  A
C324        C330   1.409       .  A
C324        C325   1.408       .  A
C325        C327   1.413       .  A
C325        C326   1.410       .  A
C326        C334   1.398       .  A
C327        C336   1.400       .  A
C327        C328   1.402       .  A
C328        C329   1.396       .  A
C328        H339   1.084       .  S
C329        C330   1.403       .  A
C329        H340   1.084       .  S
C330        C331   1.396       .  A
C331        C332   1.406       .  A
C331        H341   1.084       .  S
C332        C333   1.405       .  A
C333        H342   1.084       .  S
C334        C335   1.407       .  A
C334        H343   1.084       .  S
C335        C336   1.403       .  A
C336        H344   1.084       .  S
C345        C346   1.398       .  A
C345        C350   1.403       .  A
C345        H361   1.084       .  S
C346        C347   1.403       .  A
C346        H362   1.084       .  S
C347        C348   1.413       .  A
C347       C1141   1.402       .  A
C348        C354   1.409       .  A
C348        C349   1.409       .  A
C349        C351   1.413       .  A
C349        C350   1.410       .  A
C350        C358   1.398       .  A
C351        C360   1.402       .  A
C351        C352   1.402       .  A
C352        C353   1.398       .  A
C352        H363   1.084       .  S
C353        C354   1.404       .  A
C353        H364   1.084       .  S
C354        C355   1.399       .  A
C355       C1140   1.408       .  A
C355        H365   1.084       .  S
C356        C357   1.404   1_455  A
C356       C1139   1.408   1_455  A
C357       C1131   1.402       .  A
C357        H366   1.084   1_655  S
C358        C359   1.407       .  A
C358        H367   1.084       .  S
C359        C360   1.404       .  A
C360        H368   1.084       .  S
C369        C370   1.398       .  A
C369        C374   1.404       .  A
C369        H385   1.084       .  S
C370        C371   1.403       .  A
C370        H386   1.084       .  S
C371        C381   1.402       .  A
C371        C372   1.413       .  A
C372        C378   1.409       .  A
C372        C373   1.408       .  A
C373        C375   1.413       .  A
C373        C374   1.410       .  A
C374        C382   1.398       .  A
C375        C384   1.401       .  A
C375        C376   1.402       .  A
C376        C377   1.397       .  A
C376        H387   1.084       .  S
C377        C378   1.403       .  A
C377        H388   1.084       .  S
C378        C379   1.397       .  A
C379        C380   1.407       .  A
C379        H389   1.084       .  S
C380        C381   1.404       .  A
C381        H390   1.084       .  S
C382        C383   1.407       .  A
C382        H391   1.084       .  S
C383        C384   1.404       .  A
C384        H392   1.084       .  S
C393        N394   1.348       .  A
C393        N398   1.354       .  A
C393        C772   1.473       .  S
N394        C395   1.349       .  A
C395       N1180   1.368       .  A
C395        C506   1.464       .  S
N396       C1179   1.368       .  A
N396       C1181   1.369       .  A
C397       N1180   1.369       .  A
C397        N398   1.361       .  A
C397       C1195   1.475   1_455  S
C399        N400   1.348       .  A
C399        N404   1.355       .  A
C399        C775   1.473       .  S
N400        C401   1.350       .  A
C401        N402   1.368       .  A
C401        C531   1.464       .  S
N402        C403   1.369       .  A
C403        N404   1.361       .  A
C403        C409   1.476       .  S
In405       O407   2.222       .  S
In405       O408   2.279       .  S
In405       O416   2.302       .  S
In405       O410   2.220       .  S
In405       O412   2.276       .  S
In405       O413   2.220       .  S
In405       O414   2.227       .  S
In405       O417   2.304       .  S
C406        C576   1.464       .  S
C406        O412   1.259       .  A
C406        O414   1.261       .  A
O407        C415   1.261       .  A
O408        C415   1.259       .  A
C409        O416   1.263       .  A
C409        O410   1.255       .  A
C411       C1181   1.475       .  S
C411        O413   1.255       .  A
C411        O417   1.263       .  A
C415        C447   1.464       .  S
C418        N419   1.348       .  A
C418        N423   1.355       .  A
C418        C751   1.475       .  S
N419        C420   1.350       .  A
C420        N421   1.369       .  A
C420        C581   1.467       .  S
N421        C422   1.370       .  A
C422        N423   1.362       .  A
C422        C434   1.478       .  S
C424        N425   1.349       .  A
C424        N429   1.355       .  A
C424        C748   1.476       .  S
N425        C426   1.350       .  A
C426        N427   1.369       .  A
C426        C456   1.468       .  S
N427        C428   1.370       .  A
C428        N429   1.362       .  A
C428        C436   1.480       .  S
In430       O432   2.234       .  S
In430       O433   2.284       .  S
In430       O441   2.310       .  S
In430       O435   2.223       .  S
In430       O437   2.277       .  S
In430       O438   2.231       .  S
In430       O439   2.235       .  S
In430       O442   2.305       .  S
C431        C522   1.468       .  S
C431        O437   1.258       .  A
C431        O439   1.261       .  A
O432        C440   1.260       .  A
O433        C440   1.258       .  A
C434        O441   1.263       .  A
C434        O435   1.254       .  A
C436        O438   1.256       .  A
C436        O442   1.262       .  A
C440        C501   1.470       .  S
C443        N444   1.354       .  A
C443        N448   1.348       .  A
C443        C727   1.472       .  S
N444        C445   1.361       .  A
C445        N446   1.369       .  A
C445       C1249   1.475       .  S
N446        C447   1.368       .  A
C447        N448   1.350       .  A
C449        N450   1.349       .  A
C449        N454   1.354       .  A
C449        C724   1.473       .  S
N450        C451   1.350       .  A
C451        N452   1.368       .  A
C451        C481   1.465       .  S
N452        C453   1.369       .  A
C453        N454   1.361       .  A
C453        C459   1.475       .  S
In455       O457   2.304       .  S
In455       O458   2.219   1_455  S
In455       O466   2.303       .  S
In455       O460   2.219       .  S
In455       O462   2.280       .  S
In455       O463   2.276       .  S
In455       O464   2.233       .  S
In455       O467   2.227       .  S
C456        O462   1.259       .  A
C456        O464   1.261       .  A
O457        C465   1.263   1_455  A
O458        C465   1.254       .  A
C459        O466   1.263       .  A
C459        O460   1.255       .  A
C461        C547   1.465       .  S
C461        O463   1.259       .  A
C461        O467   1.261       .  A
C465       C1229   1.475       .  S
C468        N469   1.351       .  A
C468        N473   1.354       .  A
C468        C703   1.475       .  S
N469        C470   1.353       .  A
C470        N471   1.368       .  A
C470        C536   1.468       .  S
N471        C472   1.368       .  A
C472        N473   1.360       .  A
C472        C486   1.476       .  S
C474        N475   1.350       .  A
C474        N479   1.354       .  A
C474        C700   1.476       .  S
N475        C476   1.352       .  A
C476        N477   1.369       .  A
C476        C511   1.469       .  S
N477        C478   1.370       .  A
C478        N479   1.361       .  A
C478        C484   1.478       .  S
In480       O482   2.226       .  S
In480       O483   2.275       .  S
In480       O491   2.307       .  S
In480       O485   2.219       .  S
In480       O487   2.275       .  S
In480       O488   2.213       .  S
In480       O489   2.229       .  S
In480       O492   2.306       .  S
C481        O487   1.259       .  A
C481        O489   1.261       .  A
O482        C490   1.262       .  A
O483        C490   1.259       .  A
C484        O491   1.264       .  A
C484        O485   1.255       .  A
C486        O488   1.255       .  A
C486        O492   1.265       .  A
C490        C570   1.465       .  S
C493        N494   1.348       .  A
C493        N498   1.355       .  A
C493        C676   1.475       .  S
N494        C495   1.349       .  A
C495        N496   1.369       .  A
C495        C565   1.465       .  S
N496        C497   1.370       .  A
C497        N498   1.362       .  A
C497       C1293   1.478       .  S
C499        N500   1.349       .  A
C499        N504   1.354       .  A
C499        C679   1.474       .  S
N500        C501   1.351       .  A
C501        N502   1.369       .  A
N502        C503   1.370       .  A
C503        N504   1.361       .  A
C503        C515   1.479       .  S
In505       O507   2.308       .  S
In505       O508   2.226       .  S
In505       O516   2.309   1_545  S
In505      O1294   2.222   1_455  S
C506        O512   1.258   1_556  A
C506        O514   1.261       .  A
O507        C515   1.263       .  A
O508        C515   1.255       .  A
C509       C1281   1.478       .  S
C509        O516   1.264   1_655  A
C509       O1294   1.254   1_565  A
O510      In1289   2.222       .  S
O510       C1293   1.254   1_545  A
C511        O513   1.259   1_556  A
C511        O517   1.261       .  A
C518        N519   1.355       .  A
C518        N523   1.349       .  A
C518        C652   1.474       .  S
N519        C520   1.361       .  A
C520        N521   1.369       .  A
C520        C540   1.479       .  S
N521        C522   1.369       .  A
C522        N523   1.351       .  A
C524        N525   1.348       .  A
C524        N529   1.354       .  A
C524        C655   1.474       .  S
N525        C526   1.350       .  A
C526        N527   1.369       .  A
C526        C556   1.468       .  S
N527        C528   1.370       .  A
C528        N529   1.361       .  A
C528        C534   1.478       .  S
In530       O532   2.307       .  S
In530       O533   2.229       .  S
In530       O541   2.309       .  S
In530       O535   2.220       .  S
C531        O537   1.258   1_556  A
C531        O539   1.261       .  A
O532        C540   1.263       .  A
O533        C540   1.255       .  A
C534        O541   1.263       .  A
C534        O535   1.255       .  A
C536        O538   1.259   1_556  A
C536        O542   1.261       .  A
C543        N544   1.354       .  A
C543        N548   1.348       .  A
C543        C631   1.473       .  S
N544        C545   1.361       .  A
C545       N1330   1.369       .  A
C545       C1345   1.476   1_455  S
N546       C1329   1.369       .  A
N546       C1331   1.368       .  A
C547       N1330   1.368       .  A
C547        N548   1.350       .  A
C549        N550   1.354       .  A
C549        N554   1.348       .  A
C549        C628   1.474       .  S
N550        C551   1.361       .  A
C551        N552   1.370       .  A
C551        C559   1.478       .  S
N552        C553   1.369       .  A
C553        N554   1.350       .  A
C553        C586   1.467       .  S
In555       O557   2.227       .  S
In555       O558   2.278       .  S
In555       O566   2.308       .  S
In555       O560   2.224       .  S
In555       O562   2.283       .  S
In555       O563   2.218       .  S
In555       O564   2.230       .  S
In555       O567   2.308       .  S
C556        O562   1.259       .  A
C556        O564   1.261       .  A
O557        C565   1.261       .  A
O558        C565   1.258       .  A
C559        O566   1.263       .  A
C559        O560   1.255       .  A
C561       C1329   1.476       .  S
C561        O563   1.254       .  A
C561        O567   1.263       .  A
C568        N569   1.347       .  A
C568        N573   1.354       .  A
C568        C607   1.472       .  S
N569        C570   1.349       .  A
C570        N571   1.368       .  A
N571        C572   1.370       .  A
C572        N573   1.361       .  A
C572        C584   1.477       .  S
C574        N575   1.348       .  A
C574        N579   1.354       .  A
C574        C604   1.473       .  S
N575        C576   1.349       .  A
C576        N577   1.368       .  A
N577        C578   1.369       .  A
C578        N579   1.361       .  A
C578        C590   1.475       .  S
In580       O582   2.307       .  S
In580       O583   2.220       .  S
In580       O591   2.302   1_545  S
In580       O585   2.224       .  S
In580       O587   2.281       .  S
In580       O588   2.278   1_545  S
In580       O589   2.231       .  S
In580       O592   2.228   1_545  S
C581        O587   1.258       .  A
C581        O589   1.260       .  A
O582        C590   1.263       .  A
O583        C590   1.254       .  A
C584        O591   1.263       .  A
C584        O585   1.256   1_565  A
C586        O588   1.259       .  A
C586        O592   1.262       .  A
C593        C594   1.397       .  A
C593        C598   1.402       .  A
C593        H609   1.084       .  S
C594        C595   1.403       .  A
C594        H610   1.084       .  S
C595       C1389   1.396   1_455  A
C595        C596   1.409       .  A
C596        C602   1.414       .  A
C596        C597   1.408       .  A
C597        C599   1.409   1_545  A
C597        C598   1.414       .  A
C598        C606   1.401       .  A
C599        C608   1.397       .  A
C599        C600   1.403       .  A
C600        C601   1.397       .  A
C600        H611   1.084       .  S
C601        C602   1.403   1_565  A
C601       H1396   1.084   1_455  S
C602       C1387   1.402   1_455  A
C603       C1386   1.402       .  A
C603        C604   1.404       .  A
C603        H613   1.084       .  S
C604        C605   1.406       .  A
C605       C1379   1.396       .  A
C605        H614   1.084       .  S
C606        C607   1.403   1_545  A
C606        H615   1.084       .  S
C607        C608   1.407       .  A
C608        H616   1.084       .  S
H612       C1385   1.084       .  S
C617        C618   1.397       .  A
C617        C622   1.403       .  A
C617        H633   1.084       .  S
C618        C619   1.402       .  A
C618        H634   1.084       .  S
C619        C629   1.402       .  A
C619        C620   1.413       .  A
C620        C626   1.409       .  A
C620        C621   1.409       .  A
C621        C623   1.413       .  A
C621        C622   1.409       .  A
C622        C630   1.398       .  A
C623        C632   1.402       .  A
C623        C624   1.402       .  A
C624        C625   1.397       .  A
C624        H635   1.084       .  S
C625        C626   1.403       .  A
C625        H636   1.084       .  S
C626        C627   1.397       .  A
C627        C628   1.407       .  A
C627        H637   1.084       .  S
C628        C629   1.404       .  A
C629        H638   1.084       .  S
C630        C631   1.407       .  A
C630        H639   1.084       .  S
C631        C632   1.404       .  A
C632        H640   1.084       .  S
C641        C642   1.397       .  A
C641        C646   1.403       .  A
C641        H657   1.084       .  S
C642        C643   1.402       .  A
C642        H658   1.084       .  S
C643        C653   1.401       .  A
C643        C644   1.413       .  A
C644        C650   1.410       .  A
C644        C645   1.409       .  A
C645        C647   1.413       .  A
C645        C646   1.410       .  A
C646       C1438   1.398   1_455  A
C647       C1440   1.402   1_455  A
C647        C648   1.403       .  A
C648        C649   1.398       .  A
C648       H1443   1.084   1_455  S
C649        C650   1.403       .  A
C649        H660   1.084       .  S
C650        C651   1.399       .  A
C651        C652   1.407       .  A
C651        H661   1.084       .  S
C652        C653   1.404       .  A
C653        H662   1.084       .  S
C654       C1430   1.398       .  A
C654        C655   1.407       .  A
C654        H663   1.084       .  S
C655        C656   1.404       .  A
C656       C1431   1.402       .  A
C656        H664   1.084       .  S
H659       C1432   1.084       .  S
C665        C666   1.397       .  A
C665        C670   1.403   1_565  A
C665        H681   1.084       .  S
C666        C667   1.404       .  A
C666        H682   1.084       .  S
C667        C677   1.398       .  A
C667        C668   1.409   1_565  A
C668        C674   1.413       .  A
C668        C669   1.409       .  A
C669        C671   1.410       .  A
C669        C670   1.413       .  A
C670        C678   1.402       .  A
C671        C680   1.399       .  A
C671        C672   1.403       .  A
C672        C673   1.398       .  A
C672        H683   1.084       .  S
C673        C674   1.402       .  A
C673        H684   1.084       .  S
C674        C675   1.402       .  A
C675        C676   1.404   1_545  A
C675        H685   1.084       .  S
C676        C677   1.408       .  A
C677        H686   1.084       .  S
C678        C679   1.404       .  A
C678        H687   1.084       .  S
C679        C680   1.407       .  A
C680        H688   1.084       .  S
C689        C690   1.397       .  A
C689        C694   1.403       .  A
C689        H705   1.084       .  S
C690        C691   1.403       .  A
C690        H706   1.084       .  S
C691        C701   1.399       .  A
C691        C692   1.410       .  A
C692        C698   1.413       .  A
C692        C693   1.410       .  A
C693        C695   1.410       .  A
C693        C694   1.413       .  A
C694        C702   1.401       .  A
C695        C704   1.400       .  A
C695        C696   1.403       .  A
C696        C697   1.398       .  A
C696        H707   1.083       .  S
C697        C698   1.403       .  A
C697        H708   1.084       .  S
C698       C1483   1.402       .  A
C699       C1482   1.402       .  A
C699        C700   1.405   1_655  A
C699        H709   1.084   1_655  S
C700       C1485   1.407   1_455  A
C701       C1484   1.407       .  A
C701        H710   1.084       .  S
C702        C703   1.405       .  A
C702        H711   1.084       .  S
C703        C704   1.406       .  A
C704        H712   1.084       .  S
C713        C714   1.398       .  A
C713        C718   1.404       .  A
C713        H729   1.084       .  S
C714        C715   1.403       .  A
C714        H730   1.084       .  S
C715        C725   1.402       .  A
C715        C716   1.413       .  A
C716        C722   1.409       .  A
C716        C717   1.408       .  A
C717        C719   1.413       .  A
C717        C718   1.410       .  A
C718        C726   1.398       .  A
C719        C728   1.400       .  A
C719        C720   1.402       .  A
C720        C721   1.396       .  A
C720        H731   1.084       .  S
C721        C722   1.403       .  A
C721        H732   1.084       .  S
C722        C723   1.396       .  A
C723        C724   1.406       .  A
C723        H733   1.084       .  S
C724        C725   1.405       .  A
C725        H734   1.084       .  S
C726        C727   1.407       .  A
C726        H735   1.084       .  S
C727        C728   1.403       .  A
C728        H736   1.084       .  S
C737        C738   1.398       .  A
C737        C742   1.403       .  A
C737        H753   1.084       .  S
C738        C739   1.403       .  A
C738        H754   1.084       .  S
C739       C1533   1.402       .  A
C739        C740   1.413       .  A
C740        C746   1.409       .  A
C740        C741   1.409       .  A
C741        C743   1.413       .  A
C741        C742   1.410       .  A
C742        C750   1.398       .  A
C743        C752   1.402       .  A
C743        C744   1.402       .  A
C744        C745   1.398       .  A
C744        H755   1.084       .  S
C745        C746   1.404       .  A
C745        H756   1.084       .  S
C746        C747   1.399       .  A
C747       C1532   1.408       .  A
C747        H757   1.084       .  S
C748       C1531   1.408   1_455  A
C748        C749   1.404   1_455  A
C749       C1523   1.402       .  A
C749        H758   1.084   1_655  S
C750        C751   1.407       .  A
C750        H759   1.084       .  S
C751        C752   1.404       .  A
C752        H760   1.084       .  S
C761        C762   1.398       .  A
C761        C766   1.404       .  A
C761        H777   1.084       .  S
C762        C763   1.403       .  A
C762        H778   1.084       .  S
C763        C773   1.402       .  A
C763        C764   1.413       .  A
C764        C770   1.409       .  A
C764        C765   1.408       .  A
C765        C767   1.413       .  A
C765        C766   1.410       .  A
C766        C774   1.398       .  A
C767        C776   1.401       .  A
C767        C768   1.402       .  A
C768        C769   1.397       .  A
C768        H779   1.084       .  S
C769        C770   1.403       .  A
C769        H780   1.084       .  S
C770        C771   1.397       .  A
C771        C772   1.407       .  A
C771        H781   1.084       .  S
C772        C773   1.404       .  A
C773        H782   1.084       .  S
C774        C775   1.407       .  A
C774        H783   1.084       .  S
C775        C776   1.404       .  A
C776        H784   1.084       .  S
C785        N786   1.348       .  A
C785        N790   1.354       .  A
C785       C1164   1.473       .  S
N786        C787   1.349       .  A
C787        C898   1.464       .  S
C789        N790   1.361       .  A
C791        N792   1.348       .  A
C791        N796   1.355       .  A
C791       C1167   1.473       .  S
N792        C793   1.350       .  A
C793        N794   1.368       .  A
C793        C923   1.464       .  S
N794        C795   1.369       .  A
C795        N796   1.361       .  A
C795        C801   1.476       .  S
In797       O799   2.222       .  S
In797       O800   2.279       .  S
In797       O808   2.302       .  S
In797       O802   2.220       .  S
In797       O804   2.276       .  S
In797       O805   2.220       .  S
In797       O806   2.227       .  S
In797       O809   2.304       .  S
C798        C968   1.464       .  S
C798        O804   1.259       .  A
C798        O806   1.261       .  A
O799        C807   1.261       .  A
O800        C807   1.259       .  A
C801        O808   1.263       .  A
C801        O802   1.255       .  A
C803        O805   1.255       .  A
C803        O809   1.263       .  A
C807        C839   1.464       .  S
C810        N811   1.348       .  A
C810        N815   1.355       .  A
C810       C1143   1.475       .  S
N811        C812   1.350       .  A
C812        N813   1.369       .  A
C812        C973   1.467       .  S
N813        C814   1.370       .  A
C814        N815   1.362       .  A
C814        C826   1.478       .  S
C816        N817   1.349       .  A
C816        N821   1.355       .  A
C816       C1140   1.476       .  S
N817        C818   1.350       .  A
C818        N819   1.369       .  A
C818        C848   1.468       .  S
N819        C820   1.370       .  A
C820        N821   1.362       .  A
C820        C828   1.480       .  S
In822       O824   2.234       .  S
In822       O825   2.284       .  S
In822       O833   2.310       .  S
In822       O827   2.223       .  S
In822       O829   2.277       .  S
In822       O830   2.231       .  S
In822       O831   2.235       .  S
In822       O834   2.305       .  S
C823        C914   1.468       .  S
C823        O829   1.258       .  A
C823        O831   1.261       .  A
O824        C832   1.261       .  A
O825        C832   1.258       .  A
C826        O833   1.263       .  A
C826        O827   1.254       .  A
C828        O830   1.256       .  A
C828        O834   1.262       .  A
C832        C893   1.470       .  S
C835        N836   1.354       .  A
C835        N840   1.348       .  A
C835       C1119   1.472       .  S
N836        C837   1.361       .  A
C837        N838   1.369       .  A
N838        C839   1.368       .  A
C839        N840   1.350       .  A
C841        N842   1.349       .  A
C841        N846   1.354       .  A
C841       C1116   1.473       .  S
N842        C843   1.350       .  A
C843        N844   1.368       .  A
C843        C873   1.465       .  S
N844        C845   1.369       .  A
C845        N846   1.361       .  A
C845        C851   1.475       .  S
In847       O849   2.304       .  S
In847       O850   2.219       .  S
In847       O858   2.303       .  S
In847       O852   2.219       .  S
In847       O854   2.280       .  S
In847       O855   2.276       .  S
In847       O856   2.233       .  S
In847       O859   2.227       .  S
C848        O854   1.259       .  A
C848        O856   1.261       .  A
O849        C857   1.263       .  A
O850        C857   1.254       .  A
C851        O858   1.263       .  A
C851        O852   1.255       .  A
C853        C939   1.465       .  S
C853        O855   1.259       .  A
C853        O859   1.261       .  A
C860        N861   1.351       .  A
C860        N865   1.354       .  A
C860       C1095   1.475       .  S
N861        C862   1.353       .  A
C862        N863   1.368       .  A
C862        C928   1.468       .  S
N863        C864   1.368       .  A
C864        N865   1.360       .  A
C864        C878   1.476       .  S
C866        N867   1.350       .  A
C866        N871   1.354       .  A
C866       C1092   1.476       .  S
N867        C868   1.352       .  A
C868        N869   1.369       .  A
C868        C903   1.469       .  S
N869        C870   1.370       .  A
C870        N871   1.361       .  A
C870        C876   1.478       .  S
In872       O874   2.226       .  S
In872       O875   2.275       .  S
In872       O883   2.307       .  S
In872       O877   2.219       .  S
In872       O879   2.275       .  S
In872       O880   2.213       .  S
In872       O881   2.229       .  S
In872       O884   2.306       .  S
C873        O879   1.259       .  A
C873        O881   1.261       .  A
O874        C882   1.262       .  A
O875        C882   1.259       .  A
C876        O883   1.264       .  A
C876        O877   1.255       .  A
C878        O880   1.255       .  A
C878        O884   1.265       .  A
C882        C962   1.465       .  S
C885        N886   1.348       .  A
C885        N890   1.355       .  A
C885       C1068   1.475       .  S
N886        C887   1.349       .  A
C887        N888   1.369       .  A
C887        C957   1.465       .  S
N888        C889   1.370       .  A
C889        N890   1.362       .  A
C891        N892   1.349       .  A
C891        N896   1.354       .  A
C891       C1071   1.474       .  S
N892        C893   1.351       .  A
C893        N894   1.369       .  A
N894        C895   1.370       .  A
C895        N896   1.361       .  A
C895        C907   1.479       .  S
In897       O899   2.308       .  S
In897       O900   2.226       .  S
In897       O908   2.309   1_545  S
In897      O1296   2.275       .  S
In897      O1297   2.281   1_545  S
In897      O1298   2.226   1_554  S
In897      O1301   2.234   1_544  S
C898        O904   1.258       .  A
C898        O906   1.261       .  A
O899        C907   1.263       .  A
O900        C907   1.255       .  A
C901        O908   1.264       .  A
C903        O905   1.259       .  A
C903        O909   1.261       .  A
O904      In1289   2.275       .  S
O905      In1289   2.281   1_565  S
O906      In1289   2.226       .  S
O909      In1289   2.234   1_565  S
C910        N911   1.355       .  A
C910        N915   1.349       .  A
C910       C1044   1.474       .  S
N911        C912   1.361       .  A
C912        N913   1.369       .  A
C912        C932   1.479       .  S
N913        C914   1.369       .  A
C914        N915   1.351       .  A
C916        N917   1.348       .  A
C916        N921   1.354       .  A
C916       C1047   1.474       .  S
N917        C918   1.350       .  A
C918        N919   1.369       .  A
C918        C948   1.468       .  S
N919        C920   1.370       .  A
C920        N921   1.361       .  A
C920        C926   1.478       .  S
In922       O924   2.307       .  S
In922       O925   2.229       .  S
In922       O933   2.309       .  S
In922       O927   2.220       .  S
In922      O1321   2.276       .  S
In922      O1322   2.277       .  S
In922      O1323   2.229   1_554  S
In922      O1326   2.232   1_554  S
C923        O929   1.258       .  A
C923        O931   1.261       .  A
O924        C932   1.263       .  A
O925        C932   1.255       .  A
C926        O933   1.263       .  A
C926        O927   1.255       .  A
C928        O930   1.259       .  A
C928        O934   1.261       .  A
O929      In1314   2.276       .  S
O930      In1314   2.277       .  S
O931      In1314   2.229       .  S
O934      In1314   2.232       .  S
C935        N936   1.354       .  A
C935        N940   1.348       .  A
C935       C1023   1.473       .  S
N936        C937   1.361       .  A
C939        N940   1.350       .  A
C941        N942   1.354       .  A
C941        N946   1.348       .  A
C941       C1020   1.474       .  S
N942        C943   1.361       .  A
C943        N944   1.370       .  A
C943        C951   1.478       .  S
N944        C945   1.369       .  A
C945        N946   1.350       .  A
C945        C978   1.467       .  S
In947       O949   2.227       .  S
In947       O950   2.278       .  S
In947       O958   2.308       .  S
In947       O952   2.224       .  S
In947       O954   2.283       .  S
In947       O955   2.218       .  S
In947       O956   2.230       .  S
In947       O959   2.308       .  S
C948        O954   1.259       .  A
C948        O956   1.261       .  A
O949        C957   1.261       .  A
O950        C957   1.258       .  A
C951        O958   1.263       .  A
C951        O952   1.255       .  A
C953        O955   1.254       .  A
C953        O959   1.263       .  A
C960        N961   1.347       .  A
C960        N965   1.354       .  A
C960        C999   1.472       .  S
N961        C962   1.349       .  A
C962        N963   1.368       .  A
N963        C964   1.370       .  A
C964        N965   1.361       .  A
C964        C976   1.477       .  S
C966        N967   1.348       .  A
C966        N971   1.354       .  A
C966        C996   1.473       .  S
N967        C968   1.349       .  A
C968        N969   1.368       .  A
N969        C970   1.369       .  A
C970        N971   1.361       .  A
C970        C982   1.475       .  S
In972       O974   2.307       .  S
In972       O975   2.220       .  S
In972       O983   2.302   1_545  S
In972       O977   2.224       .  S
In972       O979   2.281       .  S
In972       O980   2.278   1_545  S
In972       O981   2.231       .  S
In972       O984   2.228   1_545  S
C973        O979   1.258       .  A
C973        O981   1.260       .  A
O974        C982   1.263       .  A
O975        C982   1.254       .  A
C976        O983   1.263       .  A
C976        O977   1.256   1_565  A
C978        O980   1.259       .  A
C978        O984   1.262       .  A
C985        C986   1.397       .  A
C985        C990   1.402       .  A
C985       H1001   1.084       .  S
C986        C987   1.403       .  A
C986       H1002   1.084       .  S
C987        C988   1.409       .  A
C988        C994   1.414       .  A
C988        C989   1.408       .  A
C989        C991   1.409   1_545  A
C989        C990   1.414       .  A
C990        C998   1.401       .  A
C991       C1000   1.397       .  A
C991        C992   1.403       .  A
C992        C993   1.397       .  A
C992       H1003   1.084       .  S
C993        C994   1.403   1_565  A
C995        C996   1.404       .  A
C995       H1005   1.084       .  S
C996        C997   1.406       .  A
C997       H1006   1.084       .  S
C998        C999   1.403   1_545  A
C998       H1007   1.084       .  S
C999       C1000   1.407       .  A
C1000      H1008   1.084       .  S
C1009      C1010   1.397       .  A
C1009      C1014   1.403       .  A
C1009      H1025   1.084       .  S
C1010      C1011   1.402       .  A
C1010      H1026   1.084       .  S
C1011      C1021   1.402       .  A
C1011      C1012   1.413       .  A
C1012      C1018   1.409       .  A
C1012      C1013   1.409       .  A
C1013      C1015   1.413       .  A
C1013      C1014   1.409       .  A
C1014      C1022   1.398       .  A
C1015      C1024   1.402       .  A
C1015      C1016   1.402       .  A
C1016      C1017   1.397       .  A
C1016      H1027   1.084       .  S
C1017      C1018   1.403       .  A
C1017      H1028   1.084       .  S
C1018      C1019   1.397       .  A
C1019      C1020   1.407       .  A
C1019      H1029   1.084       .  S
C1020      C1021   1.404       .  A
C1021      H1030   1.084       .  S
C1022      C1023   1.407       .  A
C1022      H1031   1.084       .  S
C1023      C1024   1.404       .  A
C1024      H1032   1.084       .  S
C1033      C1034   1.397       .  A
C1033      C1038   1.403       .  A
C1033      H1049   1.084       .  S
C1034      C1035   1.402       .  A
C1034      H1050   1.084       .  S
C1035      C1045   1.401       .  A
C1035      C1036   1.413       .  A
C1036      C1042   1.410       .  A
C1036      C1037   1.409       .  A
C1037      C1039   1.413       .  A
C1037      C1038   1.410       .  A
C1039      C1040   1.403       .  A
C1040      C1041   1.398       .  A
C1041      C1042   1.403       .  A
C1041      H1052   1.084       .  S
C1042      C1043   1.399       .  A
C1043      C1044   1.407       .  A
C1043      H1053   1.084       .  S
C1044      C1045   1.404       .  A
C1045      H1054   1.084       .  S
C1046      C1047   1.407       .  A
C1046      H1055   1.084       .  S
C1047      C1048   1.404       .  A
C1048      H1056   1.084       .  S
C1057      C1058   1.397       .  A
C1057      C1062   1.403   1_565  A
C1057      H1073   1.084       .  S
C1058      C1059   1.404       .  A
C1058      H1074   1.084       .  S
C1059      C1069   1.398       .  A
C1059      C1060   1.409   1_565  A
C1060      C1066   1.413       .  A
C1060      C1061   1.409       .  A
C1061      C1063   1.410       .  A
C1061      C1062   1.413       .  A
C1062      C1070   1.402       .  A
C1063      C1072   1.399       .  A
C1063      C1064   1.403       .  A
C1064      C1065   1.398       .  A
C1064      H1075   1.084       .  S
C1065      C1066   1.402       .  A
C1065      H1076   1.084       .  S
C1066      C1067   1.402       .  A
C1067      C1068   1.404   1_545  A
C1067      H1077   1.084       .  S
C1068      C1069   1.408       .  A
C1069      H1078   1.084       .  S
C1070      C1071   1.404       .  A
C1070      H1079   1.084       .  S
C1071      C1072   1.407       .  A
C1072      H1080   1.084       .  S
C1081      C1082   1.397       .  A
C1081      C1086   1.403       .  A
C1081      H1097   1.084       .  S
C1082      C1083   1.403       .  A
C1082      H1098   1.084       .  S
C1083      C1093   1.399       .  A
C1083      C1084   1.410       .  A
C1084      C1090   1.413       .  A
C1084      C1085   1.410       .  A
C1085      C1087   1.410       .  A
C1085      C1086   1.413       .  A
C1086      C1094   1.401       .  A
C1087      C1096   1.400       .  A
C1087      C1088   1.403       .  A
C1088      C1089   1.398       .  A
C1088      H1099   1.084       .  S
C1089      C1090   1.403       .  A
C1089      H1100   1.084       .  S
C1091      C1092   1.405       .  A
C1091      H1101   1.084       .  S
C1093      H1102   1.084       .  S
C1094      C1095   1.405       .  A
C1094      H1103   1.084       .  S
C1095      C1096   1.406       .  A
C1096      H1104   1.084       .  S
C1105      C1106   1.398       .  A
C1105      C1110   1.404       .  A
C1105      H1121   1.084       .  S
C1106      C1107   1.403       .  A
C1106      H1122   1.084       .  S
C1107      C1117   1.402       .  A
C1107      C1108   1.413       .  A
C1108      C1114   1.409       .  A
C1108      C1109   1.408       .  A
C1109      C1111   1.413       .  A
C1109      C1110   1.410       .  A
C1110      C1118   1.398       .  A
C1111      C1120   1.400       .  A
C1111      C1112   1.402       .  A
C1112      C1113   1.396       .  A
C1112      H1123   1.084       .  S
C1113      C1114   1.403       .  A
C1113      H1124   1.084       .  S
C1114      C1115   1.396       .  A
C1115      C1116   1.406       .  A
C1115      H1125   1.084       .  S
C1116      C1117   1.405       .  A
C1117      H1126   1.084       .  S
C1118      C1119   1.407       .  A
C1118      H1127   1.084       .  S
C1119      C1120   1.403       .  A
C1120      H1128   1.084       .  S
C1129      C1130   1.398       .  A
C1129      C1134   1.403       .  A
C1129      H1145   1.084       .  S
C1130      C1131   1.403       .  A
C1130      H1146   1.084       .  S
C1131      C1132   1.413       .  A
C1132      C1138   1.409       .  A
C1132      C1133   1.409       .  A
C1133      C1135   1.413       .  A
C1133      C1134   1.410       .  A
C1134      C1142   1.398       .  A
C1135      C1144   1.402       .  A
C1135      C1136   1.402       .  A
C1136      C1137   1.398       .  A
C1136      H1147   1.084       .  S
C1137      C1138   1.404       .  A
C1137      H1148   1.084       .  S
C1138      C1139   1.399       .  A
C1139      H1149   1.084       .  S
C1140      C1141   1.404       .  A
C1141      H1150   1.084       .  S
C1142      C1143   1.407       .  A
C1142      H1151   1.084       .  S
C1143      C1144   1.404       .  A
C1144      H1152   1.084       .  S
C1153      C1154   1.398       .  A
C1153      C1158   1.404       .  A
C1153      H1169   1.084       .  S
C1154      C1155   1.403       .  A
C1154      H1170   1.084       .  S
C1155      C1165   1.402       .  A
C1155      C1156   1.413       .  A
C1156      C1162   1.409       .  A
C1156      C1157   1.408       .  A
C1157      C1159   1.413       .  A
C1157      C1158   1.410       .  A
C1158      C1166   1.398       .  A
C1159      C1168   1.401       .  A
C1159      C1160   1.402       .  A
C1160      C1161   1.397       .  A
C1160      H1171   1.084       .  S
C1161      C1162   1.403       .  A
C1161      H1172   1.084       .  S
C1162      C1163   1.397       .  A
C1163      C1164   1.407       .  A
C1163      H1173   1.084       .  S
C1164      C1165   1.404       .  A
C1165      H1174   1.084       .  S
C1166      C1167   1.407       .  A
C1166      H1175   1.084       .  S
C1167      C1168   1.404       .  A
C1168      H1176   1.084       .  S
C1177      N1178   1.348       .  A
C1177      N1182   1.354       .  A
C1177      C1556   1.473       .  S
N1178      C1179   1.349       .  A
C1179      C1290   1.464       .  S
C1181      N1182   1.361       .  A
C1183      N1184   1.348       .  A
C1183      N1188   1.355       .  A
C1183      C1559   1.473       .  S
N1184      C1185   1.350       .  A
C1185      N1186   1.368       .  A
C1185      C1315   1.464       .  S
N1186      C1187   1.369       .  A
C1187      N1188   1.361       .  A
C1187      C1193   1.476       .  S
In1189     O1191   2.222       .  S
In1189     O1192   2.279       .  S
In1189     O1200   2.302       .  S
In1189     O1194   2.220       .  S
In1189     O1196   2.276       .  S
In1189     O1197   2.220       .  S
In1189     O1198   2.227       .  S
In1189     O1201   2.304       .  S
C1190      C1360   1.464       .  S
C1190      O1196   1.259       .  A
C1190      O1198   1.261       .  A
O1191      C1199   1.261       .  A
O1192      C1199   1.259       .  A
C1193      O1200   1.263       .  A
C1193      O1194   1.255       .  A
C1195      O1197   1.255       .  A
C1195      O1201   1.263       .  A
C1199      C1231   1.464       .  S
C1202      N1203   1.348       .  A
C1202      N1207   1.355       .  A
C1202      C1535   1.475       .  S
N1203      C1204   1.350       .  A
C1204      N1205   1.369       .  A
C1204      C1365   1.467       .  S
N1205      C1206   1.370       .  A
C1206      N1207   1.362       .  A
C1206      C1218   1.478       .  S
C1208      N1209   1.349       .  A
C1208      N1213   1.355       .  A
C1208      C1532   1.476       .  S
N1209      C1210   1.350       .  A
C1210      N1211   1.369       .  A
C1210      C1240   1.468       .  S
N1211      C1212   1.370       .  A
C1212      N1213   1.362       .  A
C1212      C1220   1.480       .  S
In1214     O1216   2.234       .  S
In1214     O1217   2.284       .  S
In1214     O1225   2.310       .  S
In1214     O1219   2.223       .  S
In1214     O1221   2.277       .  S
In1214     O1222   2.231       .  S
In1214     O1223   2.235       .  S
In1214     O1226   2.305       .  S
C1215      C1306   1.468       .  S
C1215      O1221   1.258       .  A
C1215      O1223   1.261       .  A
O1216      C1224   1.260       .  A
O1217      C1224   1.258       .  A
C1218      O1225   1.263       .  A
C1218      O1219   1.254       .  A
C1220      O1222   1.256       .  A
C1220      O1226   1.262       .  A
C1224      C1285   1.470       .  S
C1227      N1228   1.354       .  A
C1227      N1232   1.348       .  A
C1227      C1511   1.472       .  S
N1228      C1229   1.361       .  A
C1229      N1230   1.369       .  A
N1230      C1231   1.368       .  A
C1231      N1232   1.350       .  A
C1233      N1234   1.349       .  A
C1233      N1238   1.354       .  A
C1233      C1508   1.473       .  S
N1234      C1235   1.350       .  A
C1235      N1236   1.368       .  A
C1235      C1265   1.465       .  S
N1236      C1237   1.369       .  A
C1237      N1238   1.361       .  A
C1237      C1243   1.475       .  S
In1239     O1241   2.304       .  S
In1239     O1242   2.219       .  S
In1239     O1250   2.303       .  S
In1239     O1244   2.219       .  S
In1239     O1246   2.280       .  S
In1239     O1247   2.276       .  S
In1239     O1248   2.233       .  S
In1239     O1251   2.227       .  S
C1240      O1246   1.259       .  A
C1240      O1248   1.261       .  A
O1241      C1249   1.263       .  A
O1242      C1249   1.254       .  A
C1243      O1250   1.263       .  A
C1243      O1244   1.255       .  A
C1245      C1331   1.465       .  S
C1245      O1247   1.259       .  A
C1245      O1251   1.261       .  A
C1252      N1253   1.351       .  A
C1252      N1257   1.354       .  A
C1252      C1487   1.475       .  S
N1253      C1254   1.353       .  A
C1254      N1255   1.368       .  A
C1254      C1320   1.468       .  S
N1255      C1256   1.368       .  A
C1256      N1257   1.360       .  A
C1256      C1270   1.476       .  S
C1258      N1259   1.350       .  A
C1258      N1263   1.354       .  A
C1258      C1484   1.476       .  S
N1259      C1260   1.352       .  A
C1260      N1261   1.369       .  A
C1260      C1295   1.469       .  S
N1261      C1262   1.370       .  A
C1262      N1263   1.361       .  A
C1262      C1268   1.478       .  S
In1264     O1266   2.226       .  S
In1264     O1267   2.275       .  S
In1264     O1275   2.307       .  S
In1264     O1269   2.219       .  S
In1264     O1271   2.275       .  S
In1264     O1272   2.213       .  S
In1264     O1273   2.229       .  S
In1264     O1276   2.306       .  S
C1265      O1271   1.259       .  A
C1265      O1273   1.261       .  A
O1266      C1274   1.262       .  A
O1267      C1274   1.259       .  A
C1268      O1275   1.264       .  A
C1268      O1269   1.255       .  A
C1270      O1272   1.255       .  A
C1270      O1276   1.265       .  A
C1274      C1354   1.465       .  S
C1277      N1278   1.348       .  A
C1277      N1282   1.355       .  A
C1277      C1460   1.475       .  S
N1278      C1279   1.349       .  A
C1279      N1280   1.369       .  A
C1279      C1349   1.465       .  S
N1280      C1281   1.370       .  A
C1281      N1282   1.362       .  A
C1283      N1284   1.349       .  A
C1283      N1288   1.354       .  A
C1283      C1463   1.474       .  S
N1284      C1285   1.351       .  A
C1285      N1286   1.369       .  A
N1286      C1287   1.370       .  A
C1287      N1288   1.361       .  A
C1287      C1299   1.479       .  S
In1289     O1291   2.308       .  S
In1289     O1292   2.226       .  S
In1289     O1300   2.309   1_545  S
C1290      O1296   1.258   1_556  A
C1290      O1298   1.261       .  A
O1291      C1299   1.263       .  A
O1292      C1299   1.255       .  A
C1293      O1300   1.264       .  A
C1295      O1297   1.259   1_556  A
C1295      O1301   1.261       .  A
C1302      N1303   1.355       .  A
C1302      N1307   1.349       .  A
C1302      C1436   1.474       .  S
N1303      C1304   1.361       .  A
C1304      N1305   1.369       .  A
C1304      C1324   1.479       .  S
N1305      C1306   1.369       .  A
C1306      N1307   1.351       .  A
C1308      N1309   1.348       .  A
C1308      N1313   1.354       .  A
C1308      C1439   1.474       .  S
N1309      C1310   1.350       .  A
C1310      N1311   1.369       .  A
C1310      C1340   1.468       .  S
N1311      C1312   1.370       .  A
C1312      N1313   1.361       .  A
C1312      C1318   1.478       .  S
In1314     O1316   2.307       .  S
In1314     O1317   2.229       .  S
In1314     O1325   2.309       .  S
In1314     O1319   2.220       .  S
C1315      O1321   1.258   1_556  A
C1315      O1323   1.261       .  A
O1316      C1324   1.263       .  A
O1317      C1324   1.255       .  A
C1318      O1325   1.263       .  A
C1318      O1319   1.255       .  A
C1320      O1322   1.259   1_556  A
C1320      O1326   1.261       .  A
C1327      N1328   1.354       .  A
C1327      N1332   1.348       .  A
C1327      C1415   1.473       .  S
N1328      C1329   1.361       .  A
C1331      N1332   1.350       .  A
C1333      N1334   1.354       .  A
C1333      N1338   1.348       .  A
C1333      C1412   1.474       .  S
N1334      C1335   1.361       .  A
C1335      N1336   1.370       .  A
C1335      C1343   1.478       .  S
N1336      C1337   1.369       .  A
C1337      N1338   1.350       .  A
C1337      C1370   1.467       .  S
In1339     O1341   2.227       .  S
In1339     O1342   2.278       .  S
In1339     O1350   2.308       .  S
In1339     O1344   2.223       .  S
In1339     O1346   2.283       .  S
In1339     O1347   2.218       .  S
In1339     O1348   2.230       .  S
In1339     O1351   2.308       .  S
C1340      O1346   1.259       .  A
C1340      O1348   1.261       .  A
O1341      C1349   1.261       .  A
O1342      C1349   1.258       .  A
C1343      O1350   1.263       .  A
C1343      O1344   1.255       .  A
C1345      O1347   1.254       .  A
C1345      O1351   1.263       .  A
C1352      N1353   1.347       .  A
C1352      N1357   1.354       .  A
C1352      C1391   1.472       .  S
N1353      C1354   1.349       .  A
C1354      N1355   1.368       .  A
N1355      C1356   1.370       .  A
C1356      N1357   1.361       .  A
C1356      C1368   1.477       .  S
C1358      N1359   1.348       .  A
C1358      N1363   1.354       .  A
C1358      C1388   1.473       .  S
N1359      C1360   1.349       .  A
C1360      N1361   1.368       .  A
N1361      C1362   1.369       .  A
C1362      N1363   1.361       .  A
C1362      C1374   1.475       .  S
In1364     O1366   2.307       .  S
In1364     O1367   2.220       .  S
In1364     O1375   2.302   1_545  S
In1364     O1369   2.224       .  S
In1364     O1371   2.281       .  S
In1364     O1372   2.278   1_545  S
In1364     O1373   2.231       .  S
In1364     O1376   2.228   1_545  S
C1365      O1371   1.258       .  A
C1365      O1373   1.260       .  A
O1366      C1374   1.263       .  A
O1367      C1374   1.254       .  A
C1368      O1375   1.263       .  A
C1368      O1369   1.256   1_565  A
C1370      O1372   1.259       .  A
C1370      O1376   1.262       .  A
C1377      C1378   1.397       .  A
C1377      C1382   1.402       .  A
C1377      H1393   1.084       .  S
C1378      C1379   1.403       .  A
C1378      H1394   1.084       .  S
C1379      C1380   1.409       .  A
C1380      C1386   1.414       .  A
C1380      C1381   1.408       .  A
C1381      C1383   1.409   1_545  A
C1381      C1382   1.414       .  A
C1382      C1390   1.401       .  A
C1383      C1392   1.397       .  A
C1383      C1384   1.403       .  A
C1384      C1385   1.397       .  A
C1384      H1395   1.084       .  S
C1385      C1386   1.403   1_565  A
C1387      C1388   1.404       .  A
C1387      H1397   1.084       .  S
C1388      C1389   1.406       .  A
C1389      H1398   1.084       .  S
C1390      C1391   1.403   1_545  A
C1390      H1399   1.084       .  S
C1391      C1392   1.407       .  A
C1392      H1400   1.084       .  S
C1401      C1402   1.397       .  A
C1401      C1406   1.403       .  A
C1401      H1417   1.084       .  S
C1402      C1403   1.402       .  A
C1402      H1418   1.084       .  S
C1403      C1413   1.402       .  A
C1403      C1404   1.413       .  A
C1404      C1410   1.409       .  A
C1404      C1405   1.409       .  A
C1405      C1407   1.413       .  A
C1405      C1406   1.409       .  A
C1406      C1414   1.398       .  A
C1407      C1416   1.402       .  A
C1407      C1408   1.402       .  A
C1408      C1409   1.397       .  A
C1408      H1419   1.084       .  S
C1409      C1410   1.403       .  A
C1409      H1420   1.084       .  S
C1410      C1411   1.397       .  A
C1411      C1412   1.407       .  A
C1411      H1421   1.084       .  S
C1412      C1413   1.404       .  A
C1413      H1422   1.084       .  S
C1414      C1415   1.407       .  A
C1414      H1423   1.084       .  S
C1415      C1416   1.404       .  A
C1416      H1424   1.084       .  S
C1425      C1426   1.397       .  A
C1425      C1430   1.403       .  A
C1425      H1441   1.084       .  S
C1426      C1427   1.402       .  A
C1426      H1442   1.084       .  S
C1427      C1437   1.401       .  A
C1427      C1428   1.413       .  A
C1428      C1434   1.410       .  A
C1428      C1429   1.409       .  A
C1429      C1431   1.413       .  A
C1429      C1430   1.410       .  A
C1431      C1432   1.403       .  A
C1432      C1433   1.398       .  A
C1433      C1434   1.403       .  A
C1433      H1444   1.084       .  S
C1434      C1435   1.399       .  A
C1435      C1436   1.407       .  A
C1435      H1445   1.084       .  S
C1436      C1437   1.404       .  A
C1437      H1446   1.084       .  S
C1438      C1439   1.407       .  A
C1438      H1447   1.084       .  S
C1439      C1440   1.404       .  A
C1440      H1448   1.084       .  S
C1449      C1450   1.397       .  A
C1449      C1454   1.403   1_565  A
C1449      H1465   1.084       .  S
C1450      C1451   1.404       .  A
C1450      H1466   1.084       .  S
C1451      C1461   1.398       .  A
C1451      C1452   1.409   1_565  A
C1452      C1458   1.413       .  A
C1452      C1453   1.409       .  A
C1453      C1455   1.410       .  A
C1453      C1454   1.413       .  A
C1454      C1462   1.402       .  A
C1455      C1464   1.399       .  A
C1455      C1456   1.403       .  A
C1456      C1457   1.398       .  A
C1456      H1467   1.084       .  S
C1457      C1458   1.402       .  A
C1457      H1468   1.084       .  S
C1458      C1459   1.402       .  A
C1459      C1460   1.404   1_545  A
C1459      H1469   1.084       .  S
C1460      C1461   1.408       .  A
C1461      H1470   1.084       .  S
C1462      C1463   1.404       .  A
C1462      H1471   1.084       .  S
C1463      C1464   1.407       .  A
C1464      H1472   1.084       .  S
C1473      C1474   1.397       .  A
C1473      C1478   1.403       .  A
C1473      H1489   1.084       .  S
C1474      C1475   1.403       .  A
C1474      H1490   1.084       .  S
C1475      C1485   1.399       .  A
C1475      C1476   1.410       .  A
C1476      C1482   1.413       .  A
C1476      C1477   1.410       .  A
C1477      C1479   1.410       .  A
C1477      C1478   1.413       .  A
C1478      C1486   1.401       .  A
C1479      C1488   1.400       .  A
C1479      C1480   1.403       .  A
C1480      C1481   1.398       .  A
C1480      H1491   1.083       .  S
C1481      C1482   1.403       .  A
C1481      H1492   1.084       .  S
C1483      C1484   1.405       .  A
C1483      H1493   1.084       .  S
C1485      H1494   1.084       .  S
C1486      C1487   1.405       .  A
C1486      H1495   1.084       .  S
C1487      C1488   1.406       .  A
C1488      H1496   1.084       .  S
C1497      C1498   1.398       .  A
C1497      C1502   1.404       .  A
C1497      H1513   1.084       .  S
C1498      C1499   1.403       .  A
C1498      H1514   1.084       .  S
C1499      C1509   1.402       .  A
C1499      C1500   1.413       .  A
C1500      C1506   1.409       .  A
C1500      C1501   1.408       .  A
C1501      C1503   1.413       .  A
C1501      C1502   1.410       .  A
C1502      C1510   1.398       .  A
C1503      C1512   1.400       .  A
C1503      C1504   1.402       .  A
C1504      C1505   1.396       .  A
C1504      H1515   1.084       .  S
C1505      C1506   1.403       .  A
C1505      H1516   1.084       .  S
C1506      C1507   1.396       .  A
C1507      C1508   1.406       .  A
C1507      H1517   1.084       .  S
C1508      C1509   1.405       .  A
C1509      H1518   1.084       .  S
C1510      C1511   1.407       .  A
C1510      H1519   1.084       .  S
C1511      C1512   1.403       .  A
C1512      H1520   1.084       .  S
C1521      C1522   1.398       .  A
C1521      C1526   1.403       .  A
C1521      H1537   1.084       .  S
C1522      C1523   1.403       .  A
C1522      H1538   1.084       .  S
C1523      C1524   1.413       .  A
C1524      C1530   1.409       .  A
C1524      C1525   1.409       .  A
C1525      C1527   1.413       .  A
C1525      C1526   1.410       .  A
C1526      C1534   1.398       .  A
C1527      C1536   1.402       .  A
C1527      C1528   1.402       .  A
C1528      C1529   1.398       .  A
C1528      H1539   1.084       .  S
C1529      C1530   1.404       .  A
C1529      H1540   1.084       .  S
C1530      C1531   1.399       .  A
C1531      H1541   1.084       .  S
C1532      C1533   1.404       .  A
C1533      H1542   1.084       .  S
C1534      C1535   1.407       .  A
C1534      H1543   1.084       .  S
C1535      C1536   1.404       .  A
C1536      H1544   1.084       .  S
C1545      C1546   1.398       .  A
C1545      C1550   1.404       .  A
C1545      H1561   1.084       .  S
C1546      C1547   1.403       .  A
C1546      H1562   1.084       .  S
C1547      C1557   1.402       .  A
C1547      C1548   1.413       .  A
C1548      C1554   1.409       .  A
C1548      C1549   1.408       .  A
C1549      C1551   1.413       .  A
C1549      C1550   1.410       .  A
C1550      C1558   1.398       .  A
C1551      C1560   1.401       .  A
C1551      C1552   1.402       .  A
C1552      C1553   1.397       .  A
C1552      H1563   1.084       .  S
C1553      C1554   1.403       .  A
C1553      H1564   1.084       .  S
C1554      C1555   1.397       .  A
C1555      C1556   1.407       .  A
C1555      H1565   1.084       .  S
C1556      C1557   1.404       .  A
C1557      H1566   1.084       .  S
C1558      C1559   1.407       .  A
C1558      H1567   1.084       .  S
C1559      C1560   1.404       .  A
C1560      H1568   1.084       .  S
