geometry optimzed in LAMMPS
_audit_creation_date              2020-12-01 
_audit_creation_method            'lammps2cif' 
_symmetry_space_group_name_H-M    'P1' 
_symmetry_Int_Tables_number       1 
_symmetry_cell_setting            triclinic 
loop_ 
_symmetry_equiv_pos_as_xyz 
  x,y,z 
_cell_length_a                    35.58624529 
_cell_length_b                    35.57125693935546 
_cell_length_c                    26.358387286988158 
_cell_angle_alpha                 89.84626025975905 
_cell_angle_beta                  90.23535258453165 
_cell_angle_gamma                 120.21872331864839 
loop_ 
_atom_site_label 
_atom_site_type_symbol 
_atom_site_fract_x 
_atom_site_fract_y 
_atom_site_fract_z 
_atom_site_charge 
Zn1        Zn  0.37459017  0.19021259  0.96245580     1.49700
Zn2        Zn  0.43489608  0.17438669  0.04146581     1.49400
Zn3        Zn  0.47855125  0.24453919  0.95406605     1.49100
Zn4        Zn  0.43416262  0.26330379  0.04490858     1.49500
O5          O  0.43000801  0.21768954  0.00056698    -1.84000
O6          O  0.33995494  0.12450800  0.97660933    -0.74600
O7          O  0.49092785  0.17466951  0.02752863    -0.74500
O8          O  0.45806443  0.23477855  0.88256312    -0.74000
O9          O  0.38472762  0.11481273  0.02699845    -0.74700
O10         O  0.38620484  0.19757057  0.88658888    -0.74300
O11         O  0.51845361  0.22071021  0.96300192    -0.74800
O12         O  0.48949609  0.32133479  0.03536841    -0.74200
O13         O  0.43211375  0.18441012  0.11605150    -0.75000
O14         O  0.51550131  0.30871405  0.96545317    -0.74400
O15         O  0.43083088  0.24586755  0.11747543    -0.74800
O16         O  0.38402037  0.27231392  0.03183650    -0.74800
O17         O  0.33960896  0.22008748  0.97903744    -0.74500
C18         C  0.34936634  0.09965103  0.00197798     0.77200
C19         C  0.52028086  0.19431691  0.99414213     0.77700
C20         C  0.42118069  0.21614328  0.86074112     0.76700
C21         C  0.51776298  0.33447978  0.00026393     0.77100
C22         C  0.43005781  0.21410777  0.14055441     0.78200
C23         C  0.34887100  0.25335911  0.00621297     0.77300
Zn24       Zn  0.36599642  0.18179097  0.53885785     1.49700
Zn25       Zn  0.42498351  0.16399204  0.45993028     1.49400
Zn26       Zn  0.42642257  0.25401243  0.45610290     1.49100
Zn27       Zn  0.47020374  0.23289666  0.54697148     1.49500
O28         O  0.42122358  0.20782250  0.50056969    -1.84000
O29         O  0.33182148  0.11580302  0.52750371    -0.74600
O30         O  0.42122453  0.17356732  0.38552640    -0.74500
O31         O  0.37609306  0.26314238  0.46699722    -0.74000
O32         O  0.37533411  0.10471647  0.47680973    -0.74700
O33         O  0.33081450  0.21114914  0.51954265    -0.74300
O34         O  0.42488964  0.23748467  0.38338139    -0.74800
O35         O  0.50835083  0.29692786  0.53612858    -0.74200
O36         O  0.48223781  0.16549440  0.47097138    -0.75000
O37         O  0.48198727  0.31171654  0.46762876    -0.74400
O38         O  0.51004296  0.20886496  0.53762525    -0.74800
O39         O  0.44985118  0.22384655  0.61809654    -0.74800
O40         O  0.37798225  0.19119546  0.61485950    -0.74500
C41         C  0.34082379  0.09033114  0.50309015     0.77200
C42         C  0.42252567  0.20483163  0.36064625     0.77700
C43         C  0.34061842  0.24434140  0.49176569     0.76700
C44         C  0.51061288  0.32366007  0.50251900     0.77100
C45         C  0.51225606  0.18453712  0.50394200     0.78200
C46         C  0.41331500  0.20797737  0.64027608     0.77300
Zn47       Zn  0.24199900  0.76836855  0.05507617     1.49700
Zn48       Zn  0.17462452  0.74847991  0.96588906     1.49400
Zn49       Zn  0.19142398  0.82173226  0.04847234     1.49100
Zn50       Zn  0.26588432  0.83753615  0.96715972     1.49500
O51         O  0.21834933  0.79437114  0.00926340    -1.84000
O52         O  0.21839183  0.70514882  0.03969581    -0.74600
O53         O  0.11522922  0.74040525  0.97809108    -0.74500
O54         O  0.19477441  0.81206419  0.12407414    -0.74000
O55         O  0.17300301  0.69130811  0.97535087    -0.74700
O56         O  0.22824968  0.77366857  0.12720723    -0.74300
O57         O  0.12652610  0.79335991  0.03171046    -0.74800
O58         O  0.27404514  0.89719550  0.97875890    -0.74200
O59         O  0.18847149  0.76306779  0.89280667    -0.75000
O60         O  0.22342855  0.88743028  0.03524980    -0.74400
O61         O  0.25274306  0.82328680  0.89329136    -0.74800
O62         O  0.32308240  0.83960012  0.98141727    -0.74800
O63         O  0.30662008  0.79522740  0.04715558    -0.74500
C64         C  0.19263318  0.67935462  0.00609119     0.77200
C65         C  0.10106688  0.76060838  0.00443269     0.77700
C66         C  0.20954494  0.79158180  0.14924992     0.76700
C67         C  0.25554005  0.91217367  0.00680471     0.77100
C68         C  0.22087087  0.79302200  0.86925601     0.78200
C69         C  0.33412574  0.82115515  0.01504863     0.77300
Zn70       Zn  0.18410667  0.81239440  0.47060305     1.49700
Zn71       Zn  0.25970306  0.82913898  0.55131450     1.49400
Zn72       Zn  0.17011888  0.73931093  0.55221537     1.49100
Zn73       Zn  0.23677860  0.76114472  0.46223808     1.49500
O74         O  0.21257027  0.78573317  0.50892756    -1.84000
O75         O  0.21579967  0.87770528  0.48324678    -0.74600
O76         O  0.24566900  0.81649589  0.62489578    -0.74500
O77         O  0.11095923  0.73088097  0.53918710    -0.74000
O78         O  0.26898893  0.88888261  0.53694348    -0.74700
O79         O  0.11892994  0.78349775  0.48725894    -0.74300
O80         O  0.18380761  0.75354539  0.62604838    -0.74800
O81         O  0.21018080  0.69665898  0.47285256    -0.74200
O82         O  0.31648322  0.82995283  0.54025826    -0.75000
O83         O  0.16769876  0.68210388  0.54014898    -0.74400
O84         O  0.30127758  0.78716674  0.47294881    -0.74800
O85         O  0.22623931  0.77085625  0.39010783    -0.74800
O86         O  0.18874406  0.80516518  0.39512688    -0.74500
C87         C  0.24934952  0.90315323  0.50941578     0.77200
C88         C  0.21503150  0.78525422  0.64924187     0.77700
C89         C  0.09480093  0.75017934  0.51450639     0.76700
C90         C  0.18475058  0.67016705  0.50611821     0.77100
C91         C  0.32794736  0.81231544  0.50638218     0.78200
C92         C  0.20668397  0.78845944  0.36898542     0.77300
Zn93       Zn  0.75080711  0.57956620  0.04385280     1.49700
Zn94       Zn  0.84085827  0.58076296  0.04529727     1.49400
Zn95       Zn  0.77276494  0.53434113  0.95571007     1.49100
Zn96       Zn  0.82355334  0.63812869  0.96148284     1.49500
O97         O  0.79757764  0.58369675  0.00161192    -1.84000
O98         O  0.76614357  0.58446720  0.11777384    -0.74600
O99         O  0.84325656  0.52501305  0.03229456    -0.74500
O100        O  0.70869797  0.49631562  0.96620313    -0.74000
O101        O  0.82761642  0.58300278  0.11995942    -0.74700
O102        O  0.69384283  0.52371817  0.03337792    -0.74300
O103        O  0.79872006  0.49647072  0.96645606    -0.74800
O104        O  0.81467698  0.62504806  0.88566505    -0.74200
O105        O  0.89993215  0.63309401  0.03092790    -0.75000
O106        O  0.78147326  0.55294236  0.88346160    -0.74400
O107        O  0.88878010  0.67351462  0.97470906    -0.74800
O108        O  0.79388514  0.67323515  0.97618116    -0.74800
O109        O  0.73932524  0.62716823  0.02561488    -0.74500
C110        C  0.79699149  0.58482773  0.14274422     0.77200
C111        C  0.82499019  0.49545473  0.99851748     0.77700
C112        C  0.68189490  0.49488248  0.99897156     0.76700
C113        C  0.79764041  0.58942762  0.86098412     0.77100
C114        C  0.91413719  0.66668403  0.00266765     0.78200
C115        C  0.75851185  0.66198410  0.99965781     0.77300
Zn116      Zn  0.74120746  0.57330127  0.54430134     1.49700
Zn117      Zn  0.76337343  0.52749789  0.45510972     1.49400
Zn118      Zn  0.81743086  0.63184174  0.46403841     1.49100
Zn119      Zn  0.83017835  0.57204589  0.54569637     1.49500
O120        O  0.78808456  0.57650414  0.50212327    -1.84000
O121        O  0.68422280  0.51658455  0.53221963    -0.74600
O122        O  0.77495465  0.54771265  0.38275780    -0.74500
O123        O  0.78693087  0.66635434  0.47687194    -0.74000
O124        O  0.69869033  0.48914625  0.46439498    -0.74700
O125        O  0.73240631  0.62364718  0.52848089    -0.74300
O126        O  0.81322236  0.61997976  0.38839493    -0.74800
O127        O  0.88985963  0.62264792  0.53330715    -0.74200
O128        O  0.78883978  0.48897449  0.46738425    -0.75000
O129        O  0.88246742  0.66771467  0.48131451    -0.74400
O130        O  0.83209871  0.51664202  0.53428036    -0.74800
O131        O  0.81701509  0.57464182  0.61897135    -0.74800
O132        O  0.75640625  0.57811786  0.61893525    -0.74500
C133        C  0.67226930  0.48749379  0.49790179     0.77200
C134        C  0.79527121  0.58513779  0.36226991     0.77700
C135        C  0.75307122  0.65814459  0.50206951     0.76700
C136        C  0.90630697  0.65820416  0.50850723     0.77100
C137        C  0.81444044  0.48750021  0.50017904     0.78200
C138        C  0.78749180  0.57766142  0.64247142     0.77300
Zn139      Zn  0.64018582  0.81911319  0.03299260     1.49700
Zn140      Zn  0.58113734  0.74827653  0.94939352     1.49400
Zn141      Zn  0.53636730  0.76732944  0.04081605     1.49100
Zn142      Zn  0.57990318  0.83643735  0.95313291     1.49500
O143        O  0.58496323  0.79332725  0.99418642    -1.84000
O144        O  0.67432444  0.78858927  0.01695429    -0.74600
O145        O  0.52456955  0.69191446  0.95770562    -0.74500
O146        O  0.55616610  0.77675045  0.11263372    -0.74000
O147        O  0.62906883  0.73660829  0.96459576    -0.74700
O148        O  0.62831061  0.81208750  0.10949391    -0.74300
O149        O  0.49830453  0.70352044  0.02832539    -0.74800
O150        O  0.52417061  0.83762072  0.96750755    -0.74200
O151        O  0.58654770  0.76581039  0.87642095    -0.75000
O152        O  0.49774333  0.79272448  0.03285256    -0.74400
O153        O  0.58224814  0.82597905  0.87778638    -0.74800
O154        O  0.62999647  0.89508044  0.97134874    -0.74800
O155        O  0.67576240  0.88434303  0.01917264    -0.74500
C156        C  0.66397990  0.75468600  0.99063085     0.77200
C157        C  0.49586245  0.67865214  0.99229733     0.77700
C158        C  0.59295385  0.79482470  0.13470829     0.76700
C159        C  0.49551710  0.81901246  0.00189004     0.77100
C160        C  0.58543404  0.79674031  0.85354013     0.78200
C161        C  0.66528602  0.90950378  0.99645694     0.77300
Zn162      Zn  0.57887856  0.74295918  0.45056114     1.49700
Zn163      Zn  0.63509678  0.81688888  0.53354386     1.49400
Zn164      Zn  0.57349457  0.82935196  0.45249428     1.49100
Zn165      Zn  0.53167432  0.76152013  0.54140674     1.49500
O166        O  0.58024679  0.78792164  0.49451345    -1.84000
O167        O  0.62863213  0.73385518  0.46766612    -0.74600
O168        O  0.66902320  0.88224235  0.51829464    -0.74500
O169        O  0.57693533  0.81842515  0.37773205    -0.74000
O170        O  0.67059194  0.78733683  0.52099149    -0.74700
O171        O  0.58567826  0.76078896  0.37685145    -0.74300
O172        O  0.62258307  0.88906951  0.46812344    -0.74800
O173        O  0.49191461  0.78563117  0.53353606    -0.74200
O174        O  0.62289485  0.81117135  0.60910999    -0.75000
O175        O  0.51716248  0.82924039  0.46679589    -0.74400
O176        O  0.55090624  0.77153725  0.61364984    -0.74800
O177        O  0.49525323  0.69780190  0.52860159    -0.74800
O178        O  0.52266864  0.68510357  0.45956554    -0.74500
C179        C  0.66249959  0.75370783  0.49528616     0.77200
C180        C  0.65805208  0.90602618  0.49325915     0.77700
C181        C  0.58310952  0.79091347  0.35378701     0.76700
C182        C  0.48910818  0.81113277  0.50193375     0.77100
C183        C  0.58796600  0.79227618  0.63486774     0.78200
C184        C  0.49367025  0.67219460  0.49395827     0.77300
Zn185      Zn  0.77294394  0.24160419  0.95351376     1.49700
Zn186      Zn  0.74744586  0.17252345  0.04185718     1.49400
Zn187      Zn  0.82314933  0.18756839  0.96374596     1.49100
Zn188      Zn  0.83689631  0.26100922  0.04612222     1.49500
O189        O  0.79543199  0.21552957  0.00102457    -1.84000
O190        O  0.70923580  0.21846507  0.96402796    -0.74600
O191        O  0.73779973  0.11355671  0.02679030    -0.74500
O192        O  0.81680569  0.19284253  0.88761050    -0.74000
O193        O  0.69163125  0.17246891  0.02829804    -0.74700
O194        O  0.78066290  0.22875363  0.88169246    -0.74300
O195        O  0.79308485  0.12211315  0.97987870    -0.74800
O196        O  0.89638753  0.27075742  0.03167909    -0.74200
O197        O  0.76008903  0.18202485  0.11663062    -0.75000
O198        O  0.88837802  0.21831719  0.97928073    -0.74400
O199        O  0.82393506  0.24303646  0.12004053    -0.74800
O200        O  0.83799172  0.31847121  0.03546268    -0.74800
O201        O  0.80106963  0.30647988  0.96366109    -0.74500
C202        C  0.68148546  0.19238782  0.99581274     0.77200
C203        C  0.75790351  0.09751747  0.00381473     0.77700
C204        C  0.79871215  0.20951791  0.86128909     0.76700
C205        C  0.91247525  0.25180477  0.00629563     0.77100
C206        C  0.79193380  0.21104075  0.14203093     0.78200
C207        C  0.82360939  0.33192615  0.99954620     0.77300
Zn208      Zn  0.76774317  0.23727861  0.45517879     1.49700
Zn209      Zn  0.83547884  0.25818529  0.54599877     1.49400
Zn210      Zn  0.74477335  0.16961422  0.54357675     1.49100
Zn211      Zn  0.81927199  0.18478881  0.46326102     1.49500
O212        O  0.79219225  0.21245229  0.50182791    -1.84000
O213        O  0.79598529  0.30172116  0.46637832    -0.74600
O214        O  0.82294014  0.24094776  0.61966267    -0.74500
O215        O  0.68923146  0.17154979  0.53421917    -0.74000
O216        O  0.83640532  0.31546020  0.53571832    -0.74700
O217        O  0.70381998  0.21429402  0.46716461    -0.74300
O218        O  0.76016190  0.17862010  0.61783897    -0.74800
O219        O  0.78865306  0.11920576  0.47806268    -0.74200
O220        O  0.89537756  0.26781499  0.53147545    -0.75000
O221        O  0.73245596  0.11009656  0.52457032    -0.74400
O222        O  0.88437936  0.21511085  0.47757382    -0.74800
O223        O  0.81302773  0.19121046  0.38724195    -0.74800
O224        O  0.77497965  0.22518413  0.38252745    -0.74500
C225        C  0.82000131  0.32785995  0.50097657     0.77200
C226        C  0.79195428  0.20861809  0.64240663     0.77700
C227        C  0.67764365  0.19005848  0.50138874     0.76700
C228        C  0.75249182  0.09465632  0.50023799     0.77100
C229        C  0.90979255  0.24834020  0.50416430     0.78200
C230        C  0.79407393  0.20725983  0.36139590     0.77300
Zn231      Zn  0.19063591  0.37124556  0.95961067     1.49700
Zn232      Zn  0.24135571  0.47625681  0.94850929     1.49400
Zn233      Zn  0.17542564  0.43149306  0.03869261     1.49100
Zn234      Zn  0.26482518  0.43403356  0.03933123     1.49500
O235        O  0.21774963  0.42768116  0.99606210    -1.84000
O236        O  0.19665812  0.38200258  0.88316780    -0.74600
O237        O  0.21691453  0.51602107  0.95962491    -0.74500
O238        O  0.11639861  0.38119842  0.02481362    -0.74000
O239        O  0.22948498  0.45397957  0.87786930    -0.74700
O240        O  0.12498970  0.33564018  0.97515116    -0.74300
O241        O  0.17517740  0.48725418  0.02727641    -0.74800
O242        O  0.25129601  0.43327860  0.11319659    -0.74200
O243        O  0.30605900  0.51508253  0.95642550    -0.75000
O244        O  0.18741228  0.42966840  0.11283944    -0.74400
O245        O  0.32058216  0.48949615  0.02598102    -0.74800
O246        O  0.27504725  0.38478440  0.02761521    -0.74800
O247        O  0.22183159  0.33742921  0.97779331    -0.74500
C248        C  0.21223338  0.41683175  0.85686928     0.77200
C249        C  0.19299416  0.51743659  0.99447739     0.77700
C250        C  0.10061729  0.34540016  0.00072975     0.76700
C251        C  0.21913577  0.43098233  0.13680465     0.77100
C252        C  0.33240132  0.51778551  0.99092845     0.78200
C253        C  0.25595569  0.34852413  0.00446225     0.77300
Zn254      Zn  0.18824439  0.36697235  0.53524590     1.49700
Zn255      Zn  0.26048277  0.42764001  0.45343185     1.49400
Zn256      Zn  0.17038362  0.42609462  0.45585296     1.49100
Zn257      Zn  0.23927231  0.47089900  0.54474372     1.49500
O258        O  0.21422828  0.42249144  0.49740216    -1.84000
O259        O  0.21692826  0.33160537  0.51588748    -0.74600
O260        O  0.24581871  0.42832376  0.38029877    -0.74500
O261        O  0.11121629  0.37463285  0.47025156    -0.74000
O262        O  0.26918896  0.37697625  0.46387222    -0.74700
O263        O  0.12257659  0.33293462  0.52411965    -0.74300
O264        O  0.18294484  0.42708949  0.38096916    -0.74800
O265        O  0.21197957  0.50820692  0.53789832    -0.74200
O266        O  0.31785483  0.48232255  0.46600421    -0.75000
O267        O  0.16797505  0.48057901  0.47145312    -0.74400
O268        O  0.30323855  0.51032269  0.53280658    -0.74800
O269        O  0.23072112  0.44960969  0.61594537    -0.74800
O270        O  0.19676134  0.37763594  0.61109740    -0.74500
C271        C  0.24991608  0.34120830  0.48812597     0.77200
C272        C  0.21446342  0.42824785  0.35687284     0.77700
C273        C  0.09701599  0.34088473  0.49811850     0.76700
C274        C  0.18555271  0.50925439  0.50608592     0.77100
C275        C  0.32983925  0.51162239  0.49982332     0.78200
C276        C  0.21355009  0.41246653  0.63716451     0.77300
C277        C  0.21001100  0.44484681  0.71811863    -0.26200
C278        C  0.21170835  0.41091036  0.69332760    -0.14300
C279        C  0.21199412  0.37771003  0.72283728     0.36300
C280        C  0.21146208  0.37989226  0.77599201    -0.25700
C281        C  0.21082504  0.41461308  0.80064585    -0.14900
C282        C  0.20958142  0.44717875  0.77076655     0.37400
N283        N  0.20677236  0.48263571  0.79232814    -0.89100
H284        H  0.20885293  0.47012874  0.69629033     0.18500
H285        H  0.21247003  0.35470107  0.79814608     0.18500
N286        N  0.21419226  0.34227951  0.70028074    -0.88200
H287        H  0.23546708  0.50304428  0.81202469     0.35900
H288        H  0.18024870  0.47023328  0.81700769     0.41000
H289        H  0.24153400  0.35492427  0.67692159     0.40600
H290        H  0.18627806  0.32404146  0.67824631     0.35500
C291        C  0.19086058  0.44118932  0.21874698    -0.26200
C292        C  0.21845632  0.43005796  0.19310625    -0.14300
C293        C  0.24481970  0.41844812  0.22172121     0.36300
C294        C  0.24299426  0.41846785  0.27492152    -0.25700
C295        C  0.21512620  0.42926094  0.30053915    -0.14900
C296        C  0.18907741  0.44106950  0.27187554     0.37400
N297        N  0.16141446  0.45390478  0.29632759    -0.89100
H298        H  0.17080024  0.45065788  0.19749405     0.18500
H299        H  0.26307763  0.40922794  0.29647554     0.18500
N300        N  0.27290077  0.40604776  0.19695760    -0.88200
H301        H  0.12953076  0.43322653  0.28393712     0.35900
H302        H  0.17072489  0.48550732  0.28457227     0.41000
H303        H  0.25311942  0.37679762  0.17786690     0.40600
H304        H  0.29083306  0.39961821  0.22353893     0.35500
C305        C  0.98143076  0.27901244  0.54789193    -0.26200
C306        C  0.95741244  0.26603949  0.50247776    -0.14300
C307        C  0.97967257  0.27449610  0.45582524     0.36300
C308        C  0.02544847  0.29764969  0.45556011    -0.25700
C309        C  0.04941440  0.31134624  0.50088413    -0.14900
C310        C  0.02699790  0.30102817  0.54761386     0.37400
N311        N  0.04960498  0.31456954  0.59513648    -0.89100
H312        H  0.96462952  0.27284048  0.58384510     0.18500
H313        H  0.04260882  0.30587281  0.41971250     0.18500
N314        N  0.95588589  0.26209153  0.40877997    -0.88200
H315        H  0.06972482  0.34839277  0.59464722     0.35900
H316        H  0.06900344  0.30038270  0.59912523     0.41000
H317        H  0.93928773  0.22813725  0.40681813     0.40600
H318        H  0.97719967  0.27320072  0.37795221     0.35500
C319        C  0.98201704  0.26425500  0.96665558    -0.26200
C320        C  0.96045753  0.27036841  0.00771479    -0.14300
C321        C  0.98551880  0.29702697  0.04841350     0.36300
C322        C  0.03090208  0.31915434  0.04587193    -0.25700
C323        C  0.05269635  0.31564151  0.00345558    -0.14900
C324        C  0.02794354  0.28683453  0.96390555     0.37400
N325        N  0.04918075  0.28185867  0.92031699    -0.89100
H326        H  0.96306474  0.24354652  0.93542763     0.18500
H327        H  0.04925649  0.34015682  0.07722075     0.18500
N328        N  0.96510147  0.30207677  0.09257893    -0.88200
H329        H  0.06439305  0.31158264  0.90098993     0.35900
H330        H  0.02633442  0.25899271  0.89522617     0.41000
H331        H  0.97554247  0.33513705  0.09678134     0.40600
H332        H  0.97572424  0.29214806  0.12421134     0.35500
C333        C  0.83351555  0.22713204  0.72365206    -0.26200
C334        C  0.79306238  0.20625758  0.69857292    -0.14300
C335        C  0.75450248  0.18469282  0.72766837     0.36300
C336        C  0.75742199  0.18510359  0.78089359    -0.25700
C337        C  0.79782576  0.20637179  0.80559091    -0.14900
C338        C  0.83622657  0.22732006  0.77663188     0.37400
N339        N  0.87824018  0.25046478  0.80010014    -0.89100
H340        H  0.86333542  0.24378670  0.70195230     0.18500
H341        H  0.72797683  0.16944038  0.80337485     0.18500
N342        N  0.71255025  0.16365891  0.70337534    -0.88200
H343        H  0.88263321  0.22868275  0.82244286     0.35900
H344        H  0.87899629  0.27443004  0.82373525     0.41000
H345        H  0.70853930  0.18780018  0.68580708     0.40600
H346        H  0.68772913  0.14883010  0.73024279     0.35500
C347        C  0.75428867  0.18782778  0.27943437    -0.26200
C348        C  0.79403367  0.20542828  0.30544313    -0.14300
C349        C  0.83310909  0.22330935  0.27773065     0.36300
C350        C  0.83166005  0.22454734  0.22437329    -0.25700
C351        C  0.79187668  0.20756504  0.19820434    -0.14900
C352        C  0.75279886  0.18814017  0.22622819     0.37400
N353        N  0.71154828  0.16981864  0.20100255    -0.89100
H354        H  0.72415948  0.17389357  0.30061348     0.18500
H355        H  0.86175190  0.23895740  0.20312157     0.18500
N356        N  0.87408556  0.24109444  0.30387747    -0.88200
H357        H  0.69558871  0.18585746  0.21393380     0.35900
H358        H  0.69305117  0.13710201  0.21155342     0.41000
H359        H  0.87842774  0.26796525  0.32473194     0.40600
H360        H  0.89971464  0.25275026  0.27795806     0.35500
C361        C  0.43708117  0.60896757  0.54125399    -0.26200
C362        C  0.45617597  0.62710048  0.49426615    -0.14300
C363        C  0.43579412  0.60386152  0.44936160     0.36300
C364        C  0.39568745  0.56507511  0.45243643    -0.25700
C365        C  0.37494209  0.54899792  0.49932554    -0.14900
C366        C  0.39693866  0.57059856  0.54433336     0.37400
N367        N  0.37964196  0.55446334  0.59377821    -0.89100
H368        H  0.45276040  0.62568976  0.57614238     0.18500
H369        H  0.37958341  0.54863999  0.41759410     0.18500
N370        N  0.45361214  0.61980119  0.40008349    -0.88200
H371        H  0.37218700  0.52209858  0.59647269     0.35900
H372        H  0.35141131  0.55607394  0.59892551     0.41000
H373        H  0.48413635  0.62236037  0.39802774     0.40600
H374        H  0.45720256  0.65061410  0.39515242     0.35500
C375        C  0.66575469  0.97822030  0.47641022    -0.26200
C376        C  0.68523911  0.95457875  0.49393574    -0.14300
C377        C  0.72887356  0.97818038  0.51186647     0.36300
C378        C  0.75132679  0.02398777  0.51173202    -0.25700
C379        C  0.73088645  0.04687598  0.49540973    -0.14900
C380        C  0.68788988  0.02373596  0.47710455     0.37400
N381        N  0.66673698  0.04675490  0.45935173    -0.89100
H382        H  0.63252523  0.96119529  0.46267732     0.18500
H383        H  0.78435943  0.04174604  0.52609854     0.18500
N384        N  0.75126447  0.95694485  0.53060404    -0.88200
H385        H  0.63491071  0.02504370  0.44763107     0.35900
H386        H  0.68349463  0.06454628  0.42723841     0.41000
H387        H  0.75121647  0.93636312  0.50236210     0.40600
H388        H  0.73488491  0.93855104  0.56252424     0.35500
C389        C  0.39740116  0.57478809  0.94520941    -0.26200
C390        C  0.37704921  0.55562513  0.99130247    -0.14300
C391        C  0.39825770  0.57490695  0.03730129     0.36300
C392        C  0.43818141  0.61385150  0.03649860    -0.25700
C393        C  0.45782035  0.63407276  0.99054269    -0.14900
C394        C  0.43794276  0.61351795  0.94424944     0.37400
N395        N  0.45760978  0.63305487  0.89653681    -0.89100
H396        H  0.38128308  0.55980252  0.90980784     0.18500
H397        H  0.45324312  0.62911538  0.07223963     0.18500
N398        N  0.37829382  0.55642921  0.08504147    -0.88200
H399        H  0.43734741  0.61521003  0.86636027     0.35900
H400        H  0.48573036  0.63092134  0.89294123     0.41000
H401        H  0.37428052  0.57958700  0.10487257     0.40600
H402        H  0.39957197  0.55007134  0.10583019     0.35500
C403        C  0.69669842  0.02467219  0.02737883    -0.26200
C404        C  0.73799020  0.04908815  0.00477355    -0.14300
C405        C  0.75727074  0.02621047  0.98316028     0.36300
C406        C  0.73417611  0.98041861  0.98264696    -0.25700
C407        C  0.69212224  0.95693793  0.00278187    -0.14900
C408        C  0.67375672  0.97918567  0.02655548     0.37400
N409        N  0.63133366  0.95524594  0.04923713    -0.89100
H410        H  0.68138347  0.04098643  0.04504115     0.18500
H411        H  0.74847171  0.96317021  0.96479009     0.18500
N412        N  0.79974432  0.04813801  0.96109821    -0.88200
H413        H  0.62210734  0.97638941  0.06482941     0.35900
H414        H  0.63343169  0.93724531  0.07941300     0.41000
H415        H  0.82198600  0.06853892  0.98843361     0.40600
H416        H  0.79968528  0.06675103  0.93038385     0.35500
C417        C  0.61522140  0.78651359  0.77298192    -0.26200
C418        C  0.58744440  0.79798862  0.79754415    -0.14300
C419        C  0.56053068  0.80829231  0.76831006     0.36300
C420        C  0.56178491  0.80656627  0.71514559    -0.25700
C421        C  0.58970269  0.79531680  0.69066656    -0.14900
C422        C  0.61695920  0.78552436  0.72000427     0.37400
N423        N  0.64543729  0.77293933  0.69716588    -0.89100
H424        H  0.63577688  0.77826693  0.79517921     0.18500
H425        H  0.54071172  0.81387410  0.69258471     0.18500
N426        N  0.53120124  0.81924433  0.79262222    -0.88200
H427        H  0.66797541  0.79860429  0.67467917     0.35900
H428        H  0.62696346  0.74595188  0.67395117     0.41000
H429        H  0.50821093  0.79172795  0.81236443     0.40600
H430        H  0.51397479  0.82624988  0.76561128     0.35500
C431        C  0.56126178  0.80134139  0.21525639    -0.26200
C432        C  0.59340220  0.79615708  0.19088695    -0.14300
C433        C  0.62324917  0.79030842  0.22049797     0.36300
C434        C  0.61948542  0.78877763  0.27384047    -0.25700
C435        C  0.58703969  0.79374166  0.29789660    -0.14900
C436        C  0.55805595  0.80049726  0.26819532     0.37400
N437        N  0.52427596  0.80500438  0.29160730    -0.89100
H438        H  0.53819591  0.80592795  0.19298572     0.18500
H439        H  0.64191120  0.78371498  0.29676060     0.18500
N440        N  0.65644640  0.78494995  0.19647739    -0.88200
H441        H  0.49438596  0.78032218  0.27778292     0.35900
H442        H  0.52789569  0.83486638  0.28040000     0.41000
H443        H  0.64100070  0.75590513  0.17590979     0.40600
H444        H  0.67587724  0.78136308  0.22372111     0.35500
C445        C  0.83411135  0.43690697  0.54381686    -0.26200
C446        C  0.82258456  0.45037775  0.49906463    -0.14300
C447        C  0.81653352  0.42653556  0.45413446     0.36300
C448        C  0.81849874  0.38824516  0.45544975    -0.25700
C449        C  0.82676463  0.37276917  0.50077124    -0.14900
C450        C  0.83657623  0.39850049  0.54516068     0.37400
N451        N  0.84695212  0.38475899  0.59188182    -0.89100
H452        H  0.83959946  0.45545835  0.57834506     0.18500
H453        H  0.81225932  0.36983498  0.42065228     0.18500
N454        N  0.80809216  0.44088614  0.40683630    -0.88200
H455        H  0.85106743  0.40619582  0.62128361     0.35900
H456        H  0.87711636  0.38688812  0.58707513     0.41000
H457        H  0.77832580  0.41619427  0.39275672     0.40600
H458        H  0.83240104  0.44540556  0.38124681     0.35500
C459        C  0.72414104  0.70019692  0.54540054    -0.26200
C460        C  0.73616211  0.68848687  0.50004014    -0.14300
C461        C  0.72736589  0.70189479  0.45323821     0.36300
C462        C  0.70481068  0.72494175  0.45277593    -0.25700
C463        C  0.69194144  0.73580150  0.49808297    -0.14900
C464        C  0.70258371  0.72401827  0.54492450     0.37400
N465        N  0.68966174  0.73352122  0.59237434    -0.89100
H466        H  0.73056287  0.68974704  0.58145285     0.18500
H467        H  0.69624072  0.73357751  0.41684210     0.18500
N468        N  0.73870542  0.68956864  0.40635551    -0.88200
H469        H  0.65587889  0.71983140  0.59220985     0.35900
H470        H  0.70410682  0.76725908  0.59586509     0.41000
H471        H  0.77262275  0.70643645  0.40390384     0.40600
H472        H  0.72759989  0.69976060  0.37540635     0.35500
C473        C  0.84081388  0.44238830  0.04256900    -0.26200
C474        C  0.83226559  0.45772420  0.99732074    -0.14300
C475        C  0.82649956  0.43414933  0.95215439     0.36300
C476        C  0.82594819  0.39446082  0.95364901    -0.25700
C477        C  0.83149697  0.37738599  0.99940649    -0.14900
C478        C  0.84068486  0.40262162  0.04417692     0.37400
N479        N  0.84767517  0.38701037  0.09159992    -0.89100
H480        H  0.84567811  0.46048947  0.07732996     0.18500
H481        H  0.82008529  0.37639394  0.91864152     0.18500
N482        N  0.82085976  0.45021218  0.90449816    -0.88200
H483        H  0.85125983  0.40812787  0.12116725     0.35900
H484        H  0.87734489  0.38776326  0.08897699     0.41000
H485        H  0.79103883  0.42686743  0.88901692     0.40600
H486        H  0.84549753  0.45370828  0.88006619     0.35500
C487        C  0.75785650  0.73177158  0.00697300    -0.26200
C488        C  0.73663352  0.68754517  0.99414496    -0.14300
C489        C  0.69298354  0.66652288  0.97795590     0.36300
C490        C  0.67083238  0.68967467  0.97659681    -0.25700
C491        C  0.69108113  0.73363883  0.99123078    -0.14900
C492        C  0.73546789  0.75494086  0.00627961     0.37400
N493        N  0.75876244  0.79979685  0.02084445    -0.89100
H494        H  0.79152772  0.74798118  0.01919713     0.18500
H495        H  0.63704246  0.67270986  0.96483584     0.18500
N496        N  0.67126902  0.62149718  0.96301177    -0.88200
H497        H  0.74440866  0.80374774  0.05335596     0.35900
H498        H  0.75675617  0.81838999  0.99130924     0.41000
H499        H  0.68684754  0.61918614  0.93066331     0.40600
H500        H  0.63901136  0.61068654  0.95251650     0.35500
C501        C  0.78015362  0.60983093  0.72328907    -0.26200
C502        C  0.78979536  0.58084056  0.69834772    -0.14300
C503        C  0.80270765  0.55582039  0.72702292     0.36300
C504        C  0.80576929  0.56001419  0.77981064    -0.25700
C505        C  0.79680338  0.58930963  0.80494912    -0.14900
C506        C  0.78409707  0.61480168  0.77644512     0.37400
N507        N  0.77364751  0.64421821  0.80149505    -0.89100
H508        H  0.77027368  0.62914038  0.70117216     0.18500
H509        H  0.81513648  0.54001721  0.80139048     0.18500
N510        N  0.81155825  0.52511494  0.70275597    -0.88200
H511        H  0.76262239  0.65860867  0.77522840     0.35900
H512        H  0.80247798  0.66949696  0.81673718     0.41000
H513        H  0.79048288  0.49430014  0.71776402     0.40600
H514        H  0.84339153  0.53323070  0.71188102     0.35500
C515        C  0.83182641  0.58851912  0.22688026    -0.26200
C516        C  0.79703303  0.58695041  0.19932626    -0.14300
C517        C  0.76255799  0.58657902  0.22658376     0.36300
C518        C  0.76323455  0.58699841  0.27978170    -0.25700
C519        C  0.79754321  0.58781916  0.30667397    -0.14900
C520        C  0.83225777  0.58871568  0.28028949     0.37400
N521        N  0.86764435  0.58962856  0.30788331    -0.89100
H522        H  0.85857024  0.58900457  0.20682756     0.18500
H523        H  0.73642005  0.58608468  0.30025498     0.18500
N524        N  0.72639744  0.58523143  0.20076061    -0.88200
H525        H  0.89089530  0.59069613  0.28286868     0.35900
H526        H  0.85522834  0.56035059  0.32786739     0.41000
H527        H  0.72449992  0.61244727  0.21175928     0.40600
H528        H  0.69800776  0.55740284  0.21268276     0.35500
C529        C  0.39006977  0.81368955  0.55175348    -0.26200
C530        C  0.37259111  0.81943487  0.50659975    -0.14300
C531        C  0.39622942  0.82768884  0.46124297     0.36300
C532        C  0.43555215  0.82742715  0.46096478    -0.25700
C533        C  0.45144406  0.81820412  0.50529434    -0.14900
C534        C  0.42905496  0.81269986  0.55146402     0.37400
N535        N  0.44548085  0.80563626  0.59806403    -0.89100
H536        H  0.37233547  0.80776539  0.58698959     0.18500
H537        H  0.45256879  0.83243030  0.42536730     0.18500
N538        N  0.38011718  0.83602059  0.41523886    -0.88200
H539        H  0.42175770  0.77591247  0.61325920     0.35900
H540        H  0.45032260  0.83023176  0.62345890     0.41000
H541        H  0.37639041  0.81273422  0.38848902     0.40600
H542        H  0.40359960  0.86659038  0.40171978     0.35500
C543        C  0.17842175  0.60640828  0.55267647    -0.26200
C544        C  0.17687807  0.62525233  0.50645941    -0.14300
C545        C  0.17211941  0.60263184  0.46091693     0.36300
C546        C  0.17193490  0.56310667  0.46191673    -0.25700
C547        C  0.17734672  0.54611708  0.50771709    -0.14900
C548        C  0.17909488  0.56728126  0.55364884     0.37400
N549        N  0.18212730  0.54947296  0.60127874    -0.89100
H550        H  0.18152918  0.62326551  0.58801954     0.18500
H551        H  0.16995890  0.54695346  0.42637194     0.18500
N552        N  0.16799013  0.62000867  0.41349950    -0.88200
H553        H  0.15559653  0.54413346  0.62348322     0.35900
H554        H  0.21048538  0.57266864  0.61963383     0.41000
H555        H  0.13863933  0.59708144  0.39667762     0.40600
H556        H  0.19332562  0.62407275  0.38991817     0.35500
C557        C  0.97596184  0.68392273  0.55437652    -0.26200
C558        C  0.95432873  0.68784111  0.51184159    -0.14300
C559        C  0.97932962  0.71701991  0.47272715     0.36300
C560        C  0.02526535  0.73901321  0.47571750    -0.25700
C561        C  0.04674726  0.73200643  0.51651076    -0.14900
C562        C  0.02122355  0.70515939  0.55718437     0.37400
N563        N  0.03992933  0.69857366  0.60220752    -0.89100
H564        H  0.95743224  0.66285692  0.58555226     0.18500
H565        H  0.04427618  0.75997325  0.44474374     0.18500
N566        N  0.95833041  0.72309011  0.42935544    -0.88200
H567        H  0.06269514  0.72883142  0.61718673     0.35900
H568        H  0.05494832  0.68065364  0.59337759     0.41000
H569        H  0.94298575  0.69379410  0.40925537     0.40600
H570        H  0.98133708  0.74637777  0.40481125     0.35500
C571        C  0.43369670  0.81365618  0.05152441    -0.26200
C572        C  0.45803872  0.82658532  0.00644807    -0.14300
C573        C  0.44409585  0.84329976  0.96635677     0.36300
C574        C  0.40459911  0.84331931  0.97100180    -0.25700
C575        C  0.37888215  0.82752420  0.01494029    -0.14900
C576        C  0.39476207  0.81414944  0.05622824     0.37400
N577        N  0.37128704  0.80043951  0.10304322    -0.89100
H578        H  0.44436399  0.80200608  0.08337729     0.18500
H579        H  0.39307888  0.85419220  0.93924507     0.18500
N580        N  0.46881466  0.85842158  0.92029578    -0.88200
H581        H  0.39170432  0.82030046  0.13205141     0.35900
H582        H  0.36386893  0.76852268  0.11038286     0.41000
H583        H  0.49788703  0.88686855  0.92902620     0.40600
H584        H  0.45277763  0.86731686  0.89372396     0.35500
C585        C  0.18937014  0.61490051  0.04689013    -0.26200
C586        C  0.18696571  0.63522643  0.00231323    -0.14300
C587        C  0.18390364  0.61518838  0.95496870     0.36300
C588        C  0.18473213  0.57603164  0.95345115    -0.25700
C589        C  0.18764703  0.55603984  0.99812868    -0.14900
C590        C  0.18950058  0.57571526  0.04542526     0.37400
N591        N  0.19396717  0.55809420  0.09252310    -0.89100
H592        H  0.19211846  0.63012718  0.08335539     0.18500
H593        H  0.18367611  0.56129800  0.91714217     0.18500
N594        N  0.18254585  0.63576902  0.90851372    -0.88200
H595        H  0.22153181  0.55477084  0.09070102     0.35900
H596        H  0.16644959  0.52757403  0.09805889     0.41000
H597        H  0.15234759  0.63404576  0.90680728     0.40600
H598        H  0.18363524  0.61842718  0.87716920     0.35500
C599        C  0.98413529  0.71179444  0.04801429    -0.26200
C600        C  0.96158926  0.69748148  0.00180120    -0.14300
C601        C  0.98541678  0.70860925  0.95605964     0.36300
C602        C  0.03096300  0.73119709  0.95768310    -0.25700
C603        C  0.05360223  0.74407754  0.00402854    -0.14900
C604        C  0.02991947  0.73563197  0.04960505     0.37400
N605        N  0.05229927  0.74859169  0.09750783    -0.89100
H606        H  0.96589232  0.70332239  0.08311379     0.18500
H607        H  0.04885269  0.73756925  0.92250059     0.18500
N608        N  0.96432131  0.69518542  0.90766992    -0.88200
H609        H  0.03007549  0.73773153  0.12743689     0.35900
H610        H  0.06874535  0.78257199  0.09891586     0.41000
H611        H  0.94461574  0.70891854  0.90256866     0.40600
H612        H  0.94465756  0.66130549  0.90760562     0.35500
C613        C  0.18894950  0.75396725  0.78837011    -0.26200
C614        C  0.22098552  0.79175859  0.81291864    -0.14300
C615        C  0.25172491  0.82683148  0.78279135     0.36300
C616        C  0.24879261  0.82373333  0.72999268    -0.25700
C617        C  0.21631702  0.78627240  0.70553814    -0.14900
C618        C  0.18647801  0.75077232  0.73539216     0.37400
N619        N  0.15381203  0.71115008  0.71243931    -0.89100
H620        H  0.16551794  0.72627754  0.81032335     0.18500
H621        H  0.27238523  0.85125944  0.70796593     0.18500
N622        N  0.28617010  0.86624875  0.80409428    -0.88200
H623        H  0.12337740  0.70513080  0.72474886     0.35900
H624        H  0.15818073  0.68579459  0.72542303     0.41000
H625        H  0.30638851  0.85897670  0.82569860     0.40600
H626        H  0.27278275  0.88046378  0.82697326     0.35500
C627        C  0.20183734  0.82093883  0.23214290    -0.26200
C628        C  0.20551721  0.78881667  0.20538669    -0.14300
C629        C  0.20684004  0.75524104  0.23279027     0.36300
C630        C  0.20704304  0.75604620  0.28597312    -0.25700
C631        C  0.20484051  0.78890644  0.31279331    -0.14900
C632        C  0.20171683  0.82152119  0.28554818     0.37400
N633        N  0.19977819  0.85581608  0.31197146    -0.89100
H634        H  0.20055358  0.84659170  0.21136466     0.18500
H635        H  0.20852283  0.73045612  0.30667919     0.18500
N636        N  0.20754635  0.72014349  0.20666224    -0.88200
H637        H  0.19695646  0.87674954  0.28633825     0.35900
H638        H  0.22943683  0.87436367  0.33085720     0.41000
H639        H  0.17799108  0.70257582  0.18728811     0.40600
H640        H  0.20907338  0.69853041  0.23241900     0.35500
C641        C  0.56262603  0.39226039  0.45742526    -0.26200
C642        C  0.54848946  0.36875272  0.50308372    -0.14300
C643        C  0.57298421  0.38728599  0.54788515     0.36300
C644        C  0.61213083  0.42731662  0.54532855    -0.25700
C645        C  0.62774794  0.44916617  0.49908895    -0.14900
C646        C  0.60204322  0.43183119  0.45485525     0.37400
N647        N  0.61495112  0.45371777  0.40692745    -0.89100
H648        H  0.54401277  0.37886838  0.42287960     0.28100
H649        H  0.63156448  0.44063643  0.57935899     0.18500
N650        N  0.55851786  0.36510702  0.59572208    -0.88200
H651        H  0.64387664  0.45550047  0.39555517     0.35900
H652        H  0.62043562  0.48528499  0.41147422     0.41000
H653        H  0.52938162  0.36392933  0.60484795     0.40600
H654        H  0.58062314  0.38270220  0.62463530     0.35500
C655        C  0.57246351  0.18147861  0.54839706    -0.26200
C656        C  0.55164946  0.18026964  0.50252909    -0.14300
C657        C  0.57152009  0.18010114  0.45624371     0.36300
C658        C  0.61226641  0.18253014  0.45705101    -0.25700
C659        C  0.63324262  0.18412891  0.50296901    -0.14900
C660        C  0.61256199  0.18303236  0.54918438     0.37400
N661        N  0.63234397  0.18567975  0.59750238    -0.89100
H662        H  0.55778142  0.18204909  0.58412704     0.18500
H663        H  0.62795668  0.18352391  0.42151775     0.18500
N664        N  0.55161073  0.17996160  0.40860051    -0.88200
H665        H  0.66302264  0.21377800  0.59833172     0.35900
H666        H  0.63587907  0.15843025  0.60205567     0.41000
H667        H  0.52375744  0.14937145  0.40448572     0.40600
H668        H  0.57196973  0.18316500  0.37838312     0.35500
C669        C  0.30116437  0.01877688  0.45994975    -0.26200
C670        C  0.31152264  0.04262431  0.50532892    -0.14300
C671        C  0.29851479  0.02002276  0.55198847     0.36300
C672        C  0.27687644  0.97445580  0.55236137    -0.25700
C673        C  0.26713369  0.95067030  0.50702306    -0.14900
C674        C  0.27873847  0.97300586  0.46022796     0.37400
N675        N  0.27038650  0.94932538  0.41345464    -0.89100
H676        H  0.31161921  0.03604209  0.42416741     0.18500
H677        H  0.26847773  0.95747535  0.58842031     0.18500
N678        N  0.30901030  0.04245327  0.59959416    -0.88200
H679        H  0.28328872  0.97072291  0.38276656     0.35900
H680        H  0.23670908  0.93183917  0.40793305     0.41000
H681        H  0.29438919  0.06157803  0.60084217     0.40600
H682        H  0.34274884  0.06283180  0.60182425     0.35500
C683        C  0.31706472  0.29072270  0.44720905    -0.26200
C684        C  0.31162465  0.26320678  0.48832632    -0.14300
C685        C  0.28194059  0.25801953  0.52689376     0.36300
C686        C  0.26011344  0.28182853  0.52479580    -0.25700
C687        C  0.26781659  0.31141938  0.48519498    -0.14900
C688        C  0.29578108  0.31477291  0.44532651     0.37400
N689        N  0.30327313  0.34301800  0.40294748    -0.89100
H690        H  0.33907020  0.29469087  0.41665900     0.18500
H691        H  0.23875862  0.27872282  0.55571717     0.18500
N692        N  0.27542215  0.23041575  0.56955815    -0.88200
H693        H  0.29442030  0.32431231  0.36985401     0.35900
H694        H  0.33660160  0.36551943  0.40116548     0.41000
H695        H  0.24232660  0.20721865  0.57145499     0.40600
H696        H  0.28376348  0.24941112  0.60241778     0.35500
C697        C  0.37851704  0.19243556  0.77970082    -0.26200
C698        C  0.41912250  0.21573368  0.80424153    -0.14300
C699        C  0.45719200  0.23731591  0.77426091     0.36300
C700        C  0.45371546  0.23393389  0.72139080    -0.25700
C701        C  0.41334476  0.20999797  0.69672324    -0.14900
C702        C  0.37513539  0.18914575  0.72641429     0.37400
N703        N  0.33313412  0.16438601  0.70281806    -0.89100
H704        H  0.34915284  0.17594650  0.80217581     0.18500
H705        H  0.48327029  0.25065988  0.69928039     0.18500
N706        N  0.49949167  0.26263665  0.79715535    -0.88200
H707        H  0.30846427  0.15267302  0.73001974     0.35900
H708        H  0.33168427  0.13702910  0.68620403     0.41000
H709        H  0.50097182  0.29020788  0.81317132     0.40600
H710        H  0.52404397  0.27404912  0.76981524     0.35500
C711        C  0.43039635  0.17844919  0.22194113    -0.26200
C712        C  0.42658826  0.21134834  0.19683239    -0.14300
C713        C  0.41913108  0.24027169  0.22634777     0.36300
C714        C  0.41688469  0.23629816  0.27900572    -0.25700
C715        C  0.42200207  0.20433096  0.30425124    -0.14900
C716        C  0.42816951  0.17453151  0.27481524     0.37400
N717        N  0.43299197  0.14036495  0.29697330    -0.89100
H718        H  0.43566129  0.15559050  0.20043223     0.18500
H719        H  0.41143873  0.25910738  0.30037010     0.18500
N720        N  0.41353307  0.27410520  0.20460525    -0.88200
H721        H  0.40485705  0.11968751  0.31734454     0.35900
H722        H  0.45989773  0.15401764  0.32130094     0.41000
H723        H  0.38720773  0.26033119  0.17945471     0.40600
H724        H  0.44197051  0.29612951  0.18559124     0.35500
C725        C  0.61220101  0.44409794  0.04274319    -0.26200
C726        C  0.63647784  0.45804435  0.99771018    -0.14300
C727        C  0.61802239  0.43467163  0.95258768     0.36300
C728        C  0.57792310  0.39599486  0.95407505    -0.25700
C729        C  0.55522805  0.37978487  0.99980852    -0.14900
C730        C  0.57160071  0.40528273  0.04432382     0.37400
N731        N  0.54837811  0.39079160  0.09142748    -0.89100
H732        H  0.62579327  0.46243624  0.07735912     0.18500
H733        H  0.56519207  0.37777124  0.91919537     0.18500
N734        N  0.64007617  0.44977423  0.90506402    -0.88200
H735        H  0.51987870  0.39224598  0.08755867     0.35900
H736        H  0.56609616  0.41215806  0.12083925     0.41000
H737        H  0.61964269  0.45415485  0.88016201     0.40600
H738        H  0.64521205  0.42552273  0.89014649     0.35500
C739        C  0.57263703  0.17799617  0.03766711    -0.26200
C740        C  0.55830877  0.18791144  0.99259107    -0.14300
C741        C  0.58233203  0.19462688  0.94757001     0.36300
C742        C  0.62154819  0.19419148  0.94947400    -0.25700
C743        C  0.63715960  0.18658403  0.99514839    -0.14900
C744        C  0.61158130  0.17730243  0.03952520     0.37400
N745        N  0.62509702  0.16920947  0.08760192    -0.89100
H746        H  0.55444076  0.17262903  0.07242761     0.18500
H747        H  0.64040108  0.20049227  0.91508476     0.18500
N748        N  0.56705862  0.20219845  0.90016687    -0.88200
H749        H  0.65551597  0.19572066  0.09691279     0.35900
H750        H  0.62744056  0.14116102  0.08477915     0.41000
H751        H  0.53782042  0.17399283  0.89125354     0.40600
H752        H  0.58871382  0.20687930  0.87084544     0.35500
C753        C  0.27813551  0.98164357  0.96097788    -0.26200
C754        C  0.27329093  0.95977947  0.00708734    -0.14300
C755        C  0.29035189  0.98412362  0.05195356     0.36300
C756        C  0.31357214  0.02985349  0.04938511    -0.25700
C757        C  0.31934999  0.05186401  0.00312359    -0.14900
C758        C  0.30040709  0.02725527  0.95862500     0.37400
N759        N  0.30525879  0.04753677  0.91019025    -0.89100
H760        H  0.26541587  0.96308915  0.92630224     0.18500
H761        H  0.32815640  0.04850674  0.08358259     0.18500
N762        N  0.28652051  0.96237983  0.09934608    -0.88200
H763        H  0.33842908  0.06731716  0.90264741     0.35900
H764        H  0.29101642  0.06700523  0.91184140     0.41000
H765        H  0.25362972  0.94558817  0.10921570     0.40600
H766        H  0.30271693  0.98501914  0.12824501     0.35500
C767        C  0.26560016  0.28761796  0.97148815    -0.26200
C768        C  0.27512930  0.31977450  0.00832170    -0.14300
C769        C  0.30523270  0.32593861  0.04714685     0.36300
C770        C  0.32700402  0.30241669  0.04649664    -0.25700
C771        C  0.31961243  0.27208804  0.00811645    -0.14900
C772        C  0.28724569  0.26345247  0.97112234     0.37400
N773        N  0.27747265  0.23151520  0.93229250    -0.89100
H774        H  0.24215942  0.28219680  0.94193694     0.18500
H775        H  0.35068747  0.30879744  0.07612915     0.18500
N776        N  0.31420815  0.35631249  0.08749105    -0.88200
H777        H  0.25451577  0.23074555  0.90679614     0.35900
H778        H  0.26269833  0.20104429  0.94994558     0.41000
H779        H  0.34745952  0.37922796  0.08710740     0.40600
H780        H  0.30707353  0.33944688  0.12191174     0.35500
loop_ 
_geom_bond_atom_site_label_1 
_geom_bond_atom_site_label_2 
_geom_bond_distance 
_geom_bond_site_symmetry_2 
_ccdc_geom_bond_type 
Zn1           O5   1.975   1_556  S
Zn1           O6   2.054       .  S
Zn1          O10   2.033       .  S
Zn1          O17   2.051       .  S
Zn2           O5   1.956       .  S
Zn2           O7   2.024       .  S
Zn2           O9   2.003       .  S
Zn2          O13   2.011       .  S
Zn3           O5   1.936   1_556  S
Zn3           O8   1.985       .  S
Zn3          O11   2.000       .  S
Zn3          O14   2.002       .  S
Zn4           O5   1.946       .  S
Zn4          O12   2.028       .  S
Zn4          O15   1.995       .  S
Zn4          O16   1.994       .  S
O6           C18   1.278   1_556  A
O7           C19   1.274   1_554  A
O8           C20   1.270       .  A
O9           C18   1.273       .  A
O10          C20   1.275       .  A
O11          C19   1.271       .  A
O12          C21   1.272       .  A
O13          C22   1.273       .  A
O14          C21   1.272   1_556  A
O15          C22   1.270       .  A
O16          C23   1.274       .  A
O17          C23   1.278   1_556  A
C18         C757   1.484       .  S
C19         C740   1.482       .  S
C20         C698   1.490       .  S
C21         C729   1.487   1_554  S
C22         C712   1.488       .  S
C23         C771   1.493       .  S
Zn24         O28   1.979       .  S
Zn24         O29   2.051       .  S
Zn24         O33   2.056       .  S
Zn24         O40   2.040       .  S
Zn25         O28   1.954       .  S
Zn25         O30   2.005       .  S
Zn25         O32   2.004       .  S
Zn25         O36   2.031       .  S
Zn26         O28   1.948       .  S
Zn26         O31   1.996       .  S
Zn26         O34   1.999       .  S
Zn26         O37   2.032       .  S
Zn27         O28   1.937       .  S
Zn27         O35   2.000       .  S
Zn27         O38   2.006       .  S
Zn27         O39   1.979       .  S
O29          C41   1.279       .  A
O30          C42   1.270       .  A
O31          C43   1.273       .  A
O32          C41   1.274       .  A
O33          C43   1.279       .  A
O34          C42   1.273       .  A
O35          C44   1.271       .  A
O36          C45   1.274       .  A
O37          C44   1.274       .  A
O38          C45   1.271       .  A
O39          C46   1.271       .  A
O40          C46   1.275       .  A
C41         C670   1.480       .  S
C42         C715   1.487       .  S
C43         C684   1.490       .  S
C44         C642   1.488       .  S
C45         C656   1.485       .  S
C46         C701   1.490       .  S
Zn47         O51   1.947       .  S
Zn47         O52   2.007       .  S
Zn47         O56   1.998       .  S
Zn47         O63   2.009       .  S
Zn48         O51   1.957   1_556  S
Zn48         O53   2.012       .  S
Zn48         O55   2.020       .  S
Zn48         O59   1.992       .  S
Zn49         O51   1.971       .  S
Zn49         O54   2.034       .  S
Zn49         O57   2.048       .  S
Zn49         O60   2.049       .  S
Zn50         O51   1.960   1_556  S
Zn50         O58   2.016       .  S
Zn50         O61   2.006       .  S
Zn50         O62   2.033       .  S
O52          C64   1.272       .  A
O53          C65   1.274   1_556  A
O54          C66   1.276       .  A
O55          C64   1.272   1_556  A
O56          C66   1.272       .  A
O57          C65   1.277       .  A
O58          C67   1.274   1_556  A
O59          C68   1.271       .  A
O60          C67   1.278       .  A
O61          C68   1.271       .  A
O62          C69   1.274   1_556  A
O63          C69   1.272       .  A
C64         C586   1.482       .  S
C65         C603   1.483       .  S
C66         C628   1.485       .  S
C67         C754   1.480       .  S
C68         C614   1.486       .  S
C69         C575   1.492       .  S
Zn70         O74   1.975       .  S
Zn70         O75   2.036       .  S
Zn70         O79   2.058       .  S
Zn70         O86   2.025       .  S
Zn71         O74   1.958       .  S
Zn71         O76   1.998       .  S
Zn71         O78   2.015       .  S
Zn71         O82   2.028       .  S
Zn72         O74   1.950       .  S
Zn72         O77   2.000       .  S
Zn72         O80   2.008       .  S
Zn72         O83   2.019       .  S
Zn73         O74   1.948       .  S
Zn73         O81   2.012       .  S
Zn73         O84   2.016       .  S
Zn73         O85   1.999       .  S
O75          C87   1.276       .  A
O76          C88   1.272       .  A
O77          C89   1.272       .  A
O78          C87   1.274       .  A
O79          C89   1.278       .  A
O80          C88   1.272       .  A
O81          C90   1.273       .  A
O82          C91   1.273       .  A
O83          C90   1.272       .  A
O84          C91   1.273       .  A
O85          C92   1.273       .  A
O86          C92   1.274       .  A
C87         C673   1.478       .  S
C88         C617   1.484       .  S
C89         C561   1.494       .  S
C90         C544   1.477       .  S
C91         C530   1.478       .  S
C92         C631   1.483       .  S
Zn93         O97   1.949       .  S
Zn93         O98   2.005       .  S
Zn93        O102   2.019       .  S
Zn93        O109   1.989       .  S
Zn94         O97   1.964       .  S
Zn94         O99   2.057       .  S
Zn94        O101   2.037       .  S
Zn94        O105   2.023       .  S
Zn95         O97   1.941   1_556  S
Zn95        O100   2.001       .  S
Zn95        O103   1.999       .  S
Zn95        O106   1.988       .  S
Zn96         O97   1.979   1_556  S
Zn96        O104   2.040       .  S
Zn96        O107   2.037       .  S
Zn96        O108   2.039       .  S
O98         C110   1.272       .  A
O99         C111   1.278   1_554  A
O100        C112   1.271       .  A
O101        C110   1.276       .  A
O102        C112   1.272   1_554  A
O103        C111   1.272       .  A
O104        C113   1.274       .  A
O105        C114   1.276       .  A
O106        C113   1.270       .  A
O107        C114   1.277   1_556  A
O108        C115   1.275       .  A
O109        C115   1.271   1_554  A
C110        C516   1.493       .  S
C111        C474   1.490       .  S
C112        C726   1.483       .  S
C113        C505   1.477       .  S
C114        C600   1.480       .  S
C115        C488   1.471       .  S
Zn116       O120   1.963       .  S
Zn116       O121   2.041       .  S
Zn116       O125   2.010       .  S
Zn116       O132   2.023       .  S
Zn117       O120   1.951       .  S
Zn117       O122   2.006       .  S
Zn117       O124   2.015       .  S
Zn117       O128   2.012       .  S
Zn118       O120   1.975       .  S
Zn118       O123   2.036       .  S
Zn118       O126   2.028       .  S
Zn118       O129   2.053       .  S
Zn119       O120   1.952       .  S
Zn119       O127   2.003       .  S
Zn119       O130   2.029       .  S
Zn119       O131   2.003       .  S
O121        C133   1.276       .  A
O122        C134   1.272       .  A
O123        C135   1.277       .  A
O124        C133   1.272       .  A
O125        C135   1.274       .  A
O126        C134   1.274       .  A
O127        C136   1.274       .  A
O128        C137   1.273       .  A
O129        C136   1.277       .  A
O130        C137   1.274       .  A
O131        C138   1.272       .  A
O132        C138   1.273       .  A
C133        C645   1.482       .  S
C134        C519   1.468       .  S
C135        C460   1.478       .  S
C136        C558   1.492       .  S
C137        C446   1.488       .  S
C138        C502   1.476       .  S
Zn139       O143   1.981   1_554  S
Zn139       O144   2.042       .  S
Zn139       O148   2.051       .  S
Zn139       O155   2.040       .  S
Zn140       O143   1.942       .  S
Zn140       O145   2.015       .  S
Zn140       O147   1.987       .  S
Zn140       O151   2.000       .  S
Zn141       O143   1.939   1_554  S
Zn141       O146   1.987       .  S
Zn141       O149   2.000       .  S
Zn141       O152   1.999       .  S
Zn142       O143   1.955       .  S
Zn142       O150   2.042       .  S
Zn142       O153   2.031       .  S
Zn142       O154   2.004       .  S
O144        C156   1.275   1_554  A
O145        C157   1.272       .  A
O146        C158   1.271       .  A
O147        C156   1.272       .  A
O148        C158   1.276       .  A
O149        C157   1.272   1_554  A
O150        C159   1.274   1_556  A
O151        C160   1.271       .  A
O152        C159   1.271       .  A
O153        C160   1.275       .  A
O154        C161   1.275       .  A
O155        C161   1.277   1_554  A
C156        C491   1.489       .  S
C157        C393   1.479       .  S
C158        C432   1.481       .  S
C159        C572   1.493       .  S
C160        C418   1.477       .  S
C161        C407   1.471   1_556  S
Zn162       O166   1.958       .  S
Zn162       O167   2.003       .  S
Zn162       O171   2.019       .  S
Zn162       O178   2.037       .  S
Zn163       O166   1.974       .  S
Zn163       O168   2.049       .  S
Zn163       O170   2.038       .  S
Zn163       O174   2.028       .  S
Zn164       O166   1.950       .  S
Zn164       O169   2.026       .  S
Zn164       O172   1.999       .  S
Zn164       O175   2.039       .  S
Zn165       O166   1.943       .  S
Zn165       O173   2.000       .  S
Zn165       O176   1.992       .  S
Zn165       O177   1.994       .  S
O167        C179   1.273       .  A
O168        C180   1.277       .  A
O169        C181   1.275       .  A
O170        C179   1.276       .  A
O171        C181   1.273       .  A
O172        C180   1.275       .  A
O173        C182   1.270       .  A
O174        C183   1.273       .  A
O175        C182   1.275       .  A
O176        C183   1.270       .  A
O177        C184   1.272       .  A
O178        C184   1.275       .  A
C179        C463   1.476       .  S
C180        C376   1.496       .  S
C181        C435   1.479       .  S
C182        C533   1.486       .  S
C183        C421   1.474       .  S
C184        C362   1.483       .  S
Zn185       O189   1.950   1_556  S
Zn185       O190   2.005       .  S
Zn185       O194   2.001       .  S
Zn185       O201   2.019       .  S
Zn186       O189   1.947       .  S
Zn186       O191   1.988       .  S
Zn186       O193   2.016       .  S
Zn186       O197   2.011       .  S
Zn187       O189   1.982   1_556  S
Zn187       O192   2.037       .  S
Zn187       O195   2.059       .  S
Zn187       O198   2.047       .  S
Zn188       O189   1.949       .  S
Zn188       O196   2.004       .  S
Zn188       O199   2.030       .  S
Zn188       O200   2.043       .  S
O190        C202   1.272       .  A
O191        C203   1.273       .  A
O192        C204   1.275       .  A
O193        C202   1.272   1_554  A
O194        C204   1.272       .  A
O195        C203   1.277   1_556  A
O196        C205   1.274       .  A
O197        C206   1.272       .  A
O198        C205   1.278   1_556  A
O199        C206   1.275       .  A
O200        C207   1.276   1_554  A
O201        C207   1.275       .  A
C202        C743   1.484       .  S
C203        C404   1.497       .  S
C204        C337   1.472       .  S
C205        C320   1.489       .  S
C206        C351   1.485       .  S
C207        C477   1.496       .  S
Zn208       O212   1.951       .  S
Zn208       O213   2.008       .  S
Zn208       O217   2.019       .  S
Zn208       O224   2.010       .  S
Zn209       O212   1.962       .  S
Zn209       O214   2.018       .  S
Zn209       O216   2.038       .  S
Zn209       O220   2.020       .  S
Zn210       O212   1.949       .  S
Zn210       O215   2.026       .  S
Zn210       O218   2.013       .  S
Zn210       O221   1.999       .  S
Zn211       O212   1.974       .  S
Zn211       O219   2.055       .  S
Zn211       O222   2.038       .  S
Zn211       O223   2.040       .  S
O213        C225   1.275       .  A
O214        C226   1.274       .  A
O215        C227   1.273       .  A
O216        C225   1.275       .  A
O217        C227   1.272       .  A
O218        C226   1.273       .  A
O219        C228   1.278       .  A
O220        C229   1.275       .  A
O221        C228   1.273       .  A
O222        C229   1.277       .  A
O223        C230   1.275       .  A
O224        C230   1.273       .  A
C225        C449   1.491       .  S
C226        C334   1.484       .  S
C227        C659   1.486       .  S
C228        C379   1.477       .  S
C229        C306   1.482       .  S
C230        C348   1.476       .  S
Zn231       O235   1.984       .  S
Zn231       O236   2.042       .  S
Zn231       O240   2.063       .  S
Zn231       O247   2.061       .  S
Zn232       O235   1.949       .  S
Zn232       O237   2.021       .  S
Zn232       O239   1.984       .  S
Zn232       O243   2.012       .  S
Zn233       O235   1.942   1_554  S
Zn233       O238   1.990       .  S
Zn233       O241   2.010       .  S
Zn233       O244   2.007       .  S
Zn234       O235   1.940   1_554  S
Zn234       O242   2.004       .  S
Zn234       O245   2.004       .  S
Zn234       O246   1.985       .  S
O236        C248   1.277       .  A
O237        C249   1.273       .  A
O238        C250   1.273       .  A
O239        C248   1.270       .  A
O240        C250   1.279   1_556  A
O241        C249   1.271   1_554  A
O242        C251   1.271       .  A
O243        C252   1.272       .  A
O244        C251   1.272       .  A
O245        C252   1.271   1_554  A
O246        C253   1.271       .  A
O247        C253   1.279   1_556  A
C248        C281   1.484       .  S
C249        C589   1.482       .  S
C250        C323   1.489       .  S
C251        C292   1.484       .  S
C252        C390   1.478       .  S
C253        C768   1.491       .  S
Zn254       O258   1.977       .  S
Zn254       O259   2.046       .  S
Zn254       O263   2.040       .  S
Zn254       O270   2.029       .  S
Zn255       O258   1.949       .  S
Zn255       O260   1.998       .  S
Zn255       O262   1.995       .  S
Zn255       O266   2.015       .  S
Zn256       O258   1.959       .  S
Zn256       O261   2.013       .  S
Zn256       O264   2.022       .  S
Zn256       O267   2.026       .  S
Zn257       O258   1.943       .  S
Zn257       O265   2.008       .  S
Zn257       O268   2.009       .  S
Zn257       O269   1.988       .  S
O259        C271   1.278       .  A
O260        C272   1.272       .  A
O261        C273   1.274       .  A
O262        C271   1.272       .  A
O263        C273   1.277       .  A
O264        C272   1.274       .  A
O265        C274   1.272       .  A
O266        C275   1.272       .  A
O267        C274   1.274       .  A
O268        C275   1.271       .  A
O269        C276   1.272       .  A
O270        C276   1.273       .  A
C271        C687   1.488       .  S
C272        C295   1.485       .  S
C273        C309   1.479       .  S
C274        C547   1.481       .  S
C275        C365   1.482       .  S
C276        C278   1.482       .  S
C277        C278   1.402       .  A
C277        C282   1.391       .  A
C277        H284   1.084       .  S
C278        C279   1.417       .  A
C279        C280   1.404       .  A
C279        N286   1.432       .  S
C280        C281   1.407       .  A
C280        H285   1.084       .  S
C281        C282   1.418       .  A
C282        N283   1.434       .  S
N283        H287   1.044       .  S
N283        H288   1.045       .  S
N286        H289   1.045       .  S
N286        H290   1.046       .  S
C291        C292   1.406       .  A
C291        C296   1.402       .  A
C291        H298   1.084       .  S
C292        C293   1.415       .  A
C293        C294   1.404       .  A
C293        N300   1.439       .  S
C294        C295   1.406       .  A
C294        H299   1.083       .  S
C295        C296   1.411       .  A
C296        N297   1.433       .  S
N297        H301   1.046       .  S
N297        H302   1.046       .  S
N300        H303   1.046       .  S
N300        H304   1.045       .  S
C305        C306   1.405       .  A
C305        C310   1.402   1_655  A
C305        H312   1.084       .  S
C306        C307   1.413       .  A
C307        C308   1.408   1_655  A
C307        N314   1.438       .  S
C308        C309   1.403       .  A
C308        H313   1.084       .  S
C309        C310   1.414       .  A
C310        N311   1.433       .  S
N311        H315   1.046       .  S
N311        H316   1.045       .  S
N314        H317   1.045       .  S
N314        H318   1.046       .  S
C319        C320   1.408   1_556  A
C319        C324   1.414   1_655  A
C319        H326   1.083       .  S
C320        C321   1.411       .  A
C321        C322   1.398   1_655  A
C321        N328   1.433       .  S
C322        C323   1.404       .  A
C322        H327   1.084       .  S
C323        C324   1.415   1_554  A
C324        N325   1.437       .  S
N325        H329   1.046       .  S
N325        H330   1.045       .  S
N328        H331   1.046       .  S
N328        H332   1.045       .  S
C333        C334   1.407       .  A
C333        C338   1.399       .  A
C333        H340   1.084       .  S
C334        C335   1.416       .  A
C335        C336   1.406       .  A
C335        N342   1.438       .  S
C336        C337   1.401       .  A
C336        H341   1.084       .  S
C337        C338   1.409       .  A
C338        N339   1.432       .  S
N339        H343   1.044       .  S
N339        H344   1.047       .  S
N342        H345   1.045       .  S
N342        H346   1.046       .  S
C347        C348   1.402       .  A
C347        C352   1.403       .  A
C347        H354   1.084       .  S
C348        C349   1.410       .  A
C349        C350   1.409       .  A
C349        N356   1.438       .  S
C350        C351   1.407       .  A
C350        H355   1.084       .  S
C351        C352   1.413       .  A
C352        N353   1.433       .  S
N353        H357   1.045       .  S
N353        H358   1.046       .  S
N356        H359   1.046       .  S
N356        H360   1.046       .  S
C361        C362   1.405       .  A
C361        C366   1.396       .  A
C361        H368   1.084       .  S
C362        C363   1.416       .  A
C363        C364   1.402       .  A
C363        N370   1.432       .  S
C364        C365   1.407       .  A
C364        H369   1.084       .  S
C365        C366   1.415       .  A
C366        N367   1.433       .  S
N367        H371   1.046       .  S
N367        H372   1.044       .  S
N370        H373   1.045       .  S
N370        H374   1.045       .  S
C375        C376   1.408       .  A
C375        C380   1.399   1_565  A
C375        H382   1.083       .  S
C376        C377   1.422       .  A
C377        C378   1.408   1_565  A
C377        N384   1.432       .  S
C378        C379   1.403       .  A
C378        H383   1.084       .  S
C379        C380   1.407       .  A
C380        N381   1.439       .  S
N381        H385   1.045       .  S
N381        H386   1.046       .  S
N384        H387   1.045       .  S
N384        H388   1.045       .  S
C389        C390   1.404       .  A
C389        C394   1.407       .  A
C389        H396   1.084       .  S
C390        C391   1.409   1_556  A
C391        C392   1.399       .  A
C391        N398   1.433       .  S
C392        C393   1.403   1_554  A
C392        H397   1.084       .  S
C393        C394   1.415       .  A
C394        N395   1.438       .  S
N395        H399   1.045       .  S
N395        H400   1.046       .  S
N398        H401   1.046       .  S
N398        H402   1.046       .  S
C403        C404   1.410       .  A
C403        C408   1.398   1_545  A
C403        H410   1.083       .  S
C404        C405   1.423   1_554  A
C405        C406   1.408   1_545  A
C405        N412   1.431       .  S
C406        C407   1.402   1_556  A
C406        H411   1.084       .  S
C407        C408   1.405       .  A
C408        N409   1.440       .  S
N409        H413   1.046       .  S
N409        H414   1.046       .  S
N412        H415   1.045       .  S
N412        H416   1.045       .  S
C417        C418   1.406       .  A
C417        C422   1.399       .  A
C417        H424   1.084       .  S
C418        C419   1.411       .  A
C419        C420   1.405       .  A
C419        N426   1.438       .  S
C420        C421   1.404       .  A
C420        H425   1.084       .  S
C421        C422   1.412       .  A
C422        N423   1.433       .  S
N423        H427   1.045       .  S
N423        H428   1.045       .  S
N426        H429   1.045       .  S
N426        H430   1.046       .  S
C431        C432   1.405       .  A
C431        C436   1.400       .  A
C431        H438   1.084       .  S
C432        C433   1.413       .  A
C433        C434   1.411       .  A
C433        N440   1.437       .  S
C434        C435   1.406       .  A
C434        H439   1.084       .  S
C435        C436   1.406       .  A
C436        N437   1.433       .  S
N437        H441   1.046       .  S
N437        H442   1.046       .  S
N440        H443   1.045       .  S
N440        H444   1.046       .  S
C445        C446   1.407       .  A
C445        C450   1.413       .  A
C445        H452   1.083       .  S
C446        C447   1.410       .  A
C447        C448   1.399       .  A
C447        N454   1.433       .  S
C448        C449   1.405       .  A
C448        H453   1.084       .  S
C449        C450   1.418       .  A
C450        N451   1.438       .  S
N451        H455   1.046       .  S
N451        H456   1.046       .  S
N454        H457   1.046       .  S
N454        H458   1.046       .  S
C459        C460   1.404       .  A
C459        C464   1.400       .  A
C459        H466   1.084       .  S
C460        C461   1.411       .  A
C461        C462   1.407       .  A
C461        N468   1.438       .  S
C462        C463   1.404       .  A
C462        H467   1.084       .  S
C463        C464   1.413       .  A
C464        N465   1.433       .  S
N465        H469   1.046       .  S
N465        H470   1.045       .  S
N468        H471   1.045       .  S
N468        H472   1.046       .  S
C473        C474   1.405   1_554  A
C473        C478   1.413       .  A
C473        H480   1.083       .  S
C474        C475   1.412       .  A
C475        C476   1.402       .  A
C475        N482   1.433       .  S
C476        C477   1.406       .  A
C476        H481   1.084       .  S
C477        C478   1.419   1_556  A
C478        N479   1.437       .  S
N479        H483   1.046       .  S
N479        H484   1.045       .  S
N482        H485   1.046       .  S
N482        H486   1.046       .  S
C487        C488   1.402   1_554  A
C487        C492   1.405       .  A
C487        H494   1.084       .  S
C488        C489   1.408       .  A
C489        C490   1.398       .  A
C489        N496   1.440       .  S
C490        C491   1.407       .  A
C490        H495   1.083       .  S
C491        C492   1.421   1_556  A
C492        N493   1.432       .  S
N493        H497   1.045       .  S
N493        H498   1.045   1_554  S
N496        H499   1.045       .  S
N496        H500   1.047       .  S
C501        C502   1.405       .  A
C501        C506   1.410       .  A
C501        H508   1.084       .  S
C502        C503   1.407       .  A
C503        C504   1.398       .  A
C503        N510   1.433       .  S
C504        C505   1.402       .  A
C504        H509   1.084       .  S
C505        C506   1.413       .  A
C506        N507   1.438       .  S
N507        H511   1.046       .  S
N507        H512   1.045       .  S
N510        H513   1.045       .  S
N510        H514   1.046       .  S
C515        C516   1.410       .  A
C515        C520   1.408       .  A
C515        H522   1.083       .  S
C516        C517   1.419       .  A
C517        C518   1.402       .  A
C517        N524   1.433       .  S
C518        C519   1.397       .  A
C518        H523   1.084       .  S
C519        C520   1.406       .  A
C520        N521   1.438       .  S
N521        H525   1.046       .  S
N521        H526   1.046       .  S
N524        H527   1.046       .  S
N524        H528   1.046       .  S
C529        C530   1.402       .  A
C529        C534   1.405       .  A
C529        H536   1.084       .  S
C530        C531   1.407       .  A
C531        C532   1.404       .  A
C531        N538   1.432       .  S
C532        C533   1.404       .  A
C532        H537   1.084       .  S
C533        C534   1.416       .  A
C534        N535   1.433       .  S
N535        H539   1.045       .  S
N535        H540   1.046       .  S
N538        H541   1.045       .  S
N538        H542   1.046       .  S
C543        C544   1.403       .  A
C543        C548   1.404       .  A
C543        H550   1.084       .  S
C544        C545   1.408       .  A
C545        C546   1.403       .  A
C545        N552   1.432       .  S
C546        C547   1.404       .  A
C546        H551   1.084       .  S
C547        C548   1.412       .  A
C548        N549   1.433       .  S
N549        H553   1.046       .  S
N549        H554   1.046       .  S
N552        H555   1.046       .  S
N552        H556   1.045       .  S
C557        C558   1.403       .  A
C557        C562   1.395   1_655  A
C557        H564   1.084       .  S
C558        C559   1.416       .  A
C559        C560   1.415   1_655  A
C559        N566   1.437       .  S
C560        C561   1.409       .  A
C560        H565   1.083       .  S
C561        C562   1.420       .  A
C562        N563   1.434       .  S
N563        H567   1.045       .  S
N563        H568   1.044       .  S
N566        H569   1.045       .  S
N566        H570   1.046       .  S
C571        C572   1.406       .  A
C571        C576   1.400       .  A
C571        H578   1.084       .  S
C572        C573   1.416   1_554  A
C573        C574   1.412       .  A
C573        N580   1.437       .  S
C574        C575   1.408   1_556  A
C574        H579   1.083       .  S
C575        C576   1.412       .  A
C576        N577   1.433       .  S
N577        H581   1.046       .  S
N577        H582   1.046       .  S
N580        H583   1.045       .  S
N580        H584   1.046       .  S
C585        C586   1.403       .  A
C585        C590   1.397       .  A
C585        H592   1.084       .  S
C586        C587   1.415   1_554  A
C587        C588   1.409       .  A
C587        N594   1.438       .  S
C588        C589   1.404       .  A
C588        H593   1.084       .  S
C589        C590   1.416   1_556  A
C590        N591   1.433       .  S
N591        H595   1.047       .  S
N591        H596   1.044       .  S
N594        H597   1.046       .  S
N594        H598   1.045       .  S
C599        C600   1.404       .  A
C599        C604   1.409   1_655  A
C599        H606   1.084       .  S
C600        C601   1.413   1_554  A
C601        C602   1.401   1_655  A
C601        N608   1.433       .  S
C602        C603   1.405   1_556  A
C602        H607   1.084       .  S
C603        C604   1.413       .  A
C604        N605   1.437       .  S
N605        H609   1.045       .  S
N605        H610   1.045       .  S
N608        H611   1.045       .  S
N608        H612   1.046       .  S
C613        C614   1.408       .  A
C613        C618   1.400       .  A
C613        H620   1.084       .  S
C614        C615   1.418       .  A
C615        C616   1.396       .  A
C615        N622   1.433       .  S
C616        C617   1.405       .  A
C616        H621   1.084       .  S
C617        C618   1.412       .  A
C618        N619   1.433       .  S
N619        H623   1.046       .  S
N619        H624   1.046       .  S
N622        H625   1.045       .  S
N622        H626   1.045       .  S
C627        C628   1.406       .  A
C627        C632   1.408       .  A
C627        H634   1.083       .  S
C628        C629   1.415       .  A
C629        C630   1.402       .  A
C629        N636   1.439       .  S
C630        C631   1.403       .  A
C630        H635   1.084       .  S
C631        C632   1.414       .  A
C632        N633   1.438       .  S
N633        H637   1.045       .  S
N633        H638   1.046       .  S
N636        H639   1.046       .  S
N636        H640   1.046       .  S
C641        C642   1.406       .  A
C641        C646   1.402       .  A
C641        H648   1.084       .  S
C642        C643   1.416       .  A
C643        C644   1.406       .  A
C643        N650   1.438       .  S
C644        C645   1.401       .  A
C644        H649   1.084       .  S
C645        C646   1.416       .  A
C646        N647   1.433       .  S
N647        H651   1.044       .  S
N647        H652   1.046       .  S
N650        H653   1.045       .  S
N650        H654   1.046       .  S
C655        C656   1.405       .  A
C655        C660   1.400       .  A
C655        H662   1.084       .  S
C656        C657   1.414       .  A
C657        C658   1.409       .  A
C657        N664   1.438       .  S
C658        C659   1.406       .  A
C658        H663   1.084       .  S
C659        C660   1.416       .  A
C660        N661   1.433       .  S
N661        H665   1.045       .  S
N661        H666   1.045       .  S
N664        H667   1.045       .  S
N664        H668   1.046       .  S
C669        C670   1.405       .  A
C669        C674   1.407   1_545  A
C669        H676   1.084       .  S
C670        C671   1.413       .  A
C671        C672   1.401   1_545  A
C671        N678   1.433       .  S
C672        C673   1.404       .  A
C672        H677   1.084       .  S
C673        C674   1.411       .  A
C674        N675   1.438       .  S
N675        H679   1.045       .  S
N675        H680   1.045       .  S
N678        H681   1.045       .  S
N678        H682   1.046       .  S
C683        C684   1.405       .  A
C683        C688   1.400       .  A
C683        H690   1.084       .  S
C684        C685   1.412       .  A
C685        C686   1.409       .  A
C685        N692   1.432       .  S
C686        C687   1.407       .  A
C686        H691   1.084       .  S
C687        C688   1.413       .  A
C688        N689   1.434       .  S
N689        H693   1.045       .  S
N689        H694   1.046       .  S
N692        H695   1.045       .  S
N692        H696   1.046       .  S
C697        C698   1.408       .  A
C697        C702   1.409       .  A
C697        H704   1.083       .  S
C698        C699   1.417       .  A
C699        C700   1.399       .  A
C699        N706   1.439       .  S
C700        C701   1.406       .  A
C700        H705   1.083       .  S
C701        C702   1.415       .  A
C702        N703   1.438       .  S
N703        H707   1.046       .  S
N703        H708   1.045       .  S
N706        H709   1.045       .  S
N706        H710   1.046       .  S
C711        C712   1.407       .  A
C711        C716   1.399       .  A
C711        H718   1.084       .  S
C712        C713   1.420       .  A
C713        C714   1.393       .  A
C713        N720   1.433       .  S
C714        C715   1.404       .  A
C714        H719   1.084       .  S
C715        C716   1.419       .  A
C716        N717   1.433       .  S
N717        H721   1.045       .  S
N717        H722   1.045       .  S
N720        H723   1.045       .  S
N720        H724   1.045       .  S
C725        C726   1.405   1_554  A
C725        C730   1.410       .  A
C725        H732   1.083       .  S
C726        C727   1.409       .  A
C727        C728   1.398       .  A
C727        N734   1.433       .  S
C728        C729   1.405       .  A
C728        H733   1.084       .  S
C729        C730   1.417   1_556  A
C730        N731   1.437       .  S
N731        H735   1.046       .  S
N731        H736   1.045       .  S
N734        H737   1.046       .  S
N734        H738   1.046       .  S
C739        C740   1.404   1_554  A
C739        C744   1.399       .  A
C739        H746   1.084       .  S
C740        C741   1.413       .  A
C741        C742   1.404       .  A
C741        N748   1.438       .  S
C742        C743   1.405       .  A
C742        H747   1.084       .  S
C743        C744   1.418   1_556  A
C744        N745   1.433       .  S
N745        H749   1.045       .  S
N745        H750   1.045       .  S
N748        H751   1.045       .  S
N748        H752   1.046       .  S
C753        C754   1.405   1_556  A
C753        C758   1.404   1_565  A
C753        H760   1.084       .  S
C754        C755   1.410       .  A
C755        C756   1.407   1_565  A
C755        N762   1.438       .  S
C756        C757   1.406       .  A
C756        H761   1.084       .  S
C757        C758   1.415   1_554  A
C758        N759   1.432       .  S
N759        H763   1.046       .  S
N759        H764   1.045       .  S
N762        H765   1.045       .  S
N762        H766   1.046       .  S
C767        C768   1.407   1_556  A
C767        C772   1.414       .  A
C767        H774   1.083       .  S
C768        C769   1.414       .  A
C769        C770   1.398       .  A
C769        N776   1.434       .  S
C770        C771   1.405       .  A
C770        H775   1.084       .  S
C771        C772   1.417   1_554  A
C772        N773   1.437       .  S
N773        H777   1.045       .  S
N773        H778   1.046       .  S
N776        H779   1.046       .  S
N776        H780   1.046       .  S
