geometry optimzed in LAMMPS
_audit_creation_date              2020-11-30 
_audit_creation_method            'lammps2cif' 
_symmetry_space_group_name_H-M    'P1' 
_symmetry_Int_Tables_number       1 
_symmetry_cell_setting            triclinic 
loop_ 
_symmetry_equiv_pos_as_xyz 
  x,y,z 
_cell_length_a                    31.894854900464207 
_cell_length_b                    31.706844200445186 
_cell_length_c                    51.7301255294408 
_cell_angle_alpha                 91.08542715038112 
_cell_angle_beta                  89.66751782964468 
_cell_angle_gamma                 90.71967236338287 
loop_ 
_atom_site_label 
_atom_site_type_symbol 
_atom_site_fract_x 
_atom_site_fract_y 
_atom_site_fract_z 
_atom_site_charge 
N1          N  0.19843511  0.18861959  0.16852849    -0.07300
N2          N  0.16560452  0.19083185  0.18373675    -0.59420
N3          N  0.27983376  0.22960922  0.13715095    -0.06980
N4          N  0.30033814  0.26610676  0.13740163    -0.61550
N5          N  0.24383849  0.23323396  0.12530560    -0.06580
N6          N  0.23913721  0.27192043  0.11717129    -0.59400
N7          N  0.23305299  0.18346804  0.18162577    -0.06260
N8          N  0.22381708  0.18171251  0.20664352    -0.61900
C9          C  0.18138865  0.18692635  0.20747125     0.94870
C10         C  0.27470846  0.29213656  0.12456453     0.94650
N11         N  0.35138095  0.12331522  0.12180886    -0.07490
N12         N  0.38963557  0.11478184  0.11440266    -0.60000
N13         N  0.30681196  0.11753385  0.18111171    -0.05610
N14         N  0.32340637  0.12040887  0.20426846    -0.61250
N15         N  0.31631145  0.08145124  0.16957054    -0.07520
N16         N  0.34103364  0.05968030  0.18497574    -0.60270
N17         N  0.35061672  0.15810108  0.13621440    -0.05250
N18         N  0.38956170  0.17244271  0.13959404    -0.61340
Mn19       Mn  0.29292659  0.17304789  0.15949643     1.18440
C20         C  0.41350054  0.14479296  0.12573217     0.96960
C21         C  0.34424895  0.08427775  0.20676706     0.97620
N22         N  0.19260563  0.18010616  0.08636751    -0.07540
N23         N  0.19171330  0.21219663  0.07075491    -0.63850
N24         N  0.14987369  0.09916176  0.11869303    -0.06340
N25         N  0.11335188  0.07898301  0.11888759    -0.64520
N26         N  0.14648338  0.13627715  0.13009062    -0.07040
N27         N  0.10807625  0.14187356  0.13865078    -0.64110
N28         N  0.19653136  0.14417780  0.07361937    -0.05940
N29         N  0.19881275  0.15156764  0.04846114    -0.64800
Mn30       Mn  0.19500753  0.18497483  0.12751306     1.10660
C31         C  0.19517229  0.19429788  0.04715952     0.98180
C32         C  0.08761707  0.10592022  0.13175923     0.98250
N33         N  0.25720738  0.02444219  0.13079138    -0.07050
N34         N  0.26615652  0.98518450  0.13610671    -0.62430
N35         N  0.26068406  0.07153389  0.07371102    -0.06370
N36         N  0.25793881  0.05782972  0.04984206    -0.59160
N37         N  0.29743965  0.06334286  0.08362536    -0.07680
N38         N  0.32047616  0.04257745  0.06608117    -0.61990
N39         N  0.22133583  0.02632549  0.11818234    -0.06670
N40         N  0.20626672  0.98745962  0.11431755    -0.59180
Mn41       Mn  0.30592177  0.07279858  0.12651769     1.20190
Mn42       Mn  0.20607602  0.08480631  0.09593188     1.10090
Cl43       Cl  0.25012547  0.12837678  0.12759260    -0.87150
C44         C  0.23408747  0.96227675  0.12627335     0.95180
C45         C  0.29505098  0.04007286  0.04496403     0.94980
N46         N  0.26970943  0.53390426  0.11361076    -0.07300
N47         N  0.27624360  0.49512028  0.10511387    -0.59420
N48         N  0.19795678  0.59849547  0.13763587    -0.06980
N49         N  0.15900087  0.59884431  0.14659569    -0.61550
N50         N  0.19796197  0.59757686  0.11214315    -0.06580
N51         N  0.15910033  0.59673138  0.10342097    -0.59400
N52         N  0.27111787  0.53583106  0.13901152    -0.06260
N53         N  0.27802684  0.49805990  0.14834304    -0.61900
C54         C  0.28198995  0.47332583  0.12688715     0.94870
C55         C  0.13494489  0.59767124  0.12505446     0.94650
N56         N  0.27096197  0.68618752  0.18027769    -0.07490
N57         N  0.26260637  0.71198038  0.20015827    -0.60000
N58         N  0.31765964  0.59509345  0.18195617    -0.05610
N59         N  0.32985230  0.57330033  0.20222375    -0.61250
N60         N  0.34418993  0.62651584  0.17826945    -0.07520
N61         N  0.37519304  0.62599125  0.19459965    -0.60270
N62         N  0.24411275  0.65424321  0.18021965    -0.05250
N63         N  0.21698881  0.65801936  0.19938337    -0.61340
Mn64       Mn  0.25717704  0.59489274  0.16005874     1.18440
C65         C  0.22829600  0.69420699  0.21155307     0.96960
C66         C  0.36653777  0.59272247  0.20923254     0.97620
N67         N  0.24842197  0.64399037  0.06446084    -0.07540
N68         N  0.22928005  0.64649523  0.04172576    -0.63850
N69         N  0.34307009  0.60899527  0.06575728    -0.06340
N70         N  0.36656990  0.59924332  0.04508772    -0.64520
N71         N  0.31487274  0.57883455  0.06906325    -0.07040
N72         N  0.31944620  0.54812980  0.05195266    -0.64110
N73         N  0.27592210  0.67511610  0.06675209    -0.05940
N74         N  0.27484809  0.69992172  0.04701980    -0.64800
Mn75       Mn  0.25659496  0.58842068  0.08978928     1.10660
C76         C  0.24598199  0.68232872  0.03159530     0.98180
C77         C  0.35192100  0.56035991  0.03719272     0.98250
N78         N  0.38983896  0.67232510  0.13508790    -0.07050
N79         N  0.42793582  0.66814298  0.14459837    -0.62430
N80         N  0.31746342  0.73216585  0.10765266    -0.06370
N81         N  0.30381245  0.76740215  0.09742766    -0.59160
N82         N  0.31531200  0.73504069  0.13301650    -0.07680
N83         N  0.30070984  0.77209014  0.14054535    -0.61990
N84         N  0.39067736  0.66752158  0.10981526    -0.06670
N85         N  0.42930571  0.66085815  0.10153591    -0.59180
Mn86       Mn  0.33028945  0.68118984  0.15676680     1.20190
Mn87       Mn  0.33299420  0.67131490  0.08741992     1.10090
Cl88       Cl  0.29409241  0.63400606  0.12350700    -0.87150
C89         C  0.45230442  0.66138293  0.12343479     0.95180
C90         C  0.29405989  0.79231039  0.11818149     0.94980
N91         N  0.84754883  0.12357278  0.14088340    -0.07300
N92         N  0.88506349  0.11597807  0.14995173    -0.59420
N93         N  0.79062845  0.19688402  0.11453668    -0.06980
N94         N  0.79138811  0.23465999  0.10409333    -0.61550
N95         N  0.78944292  0.20041700  0.14003802    -0.06580
N96         N  0.78981584  0.24077677  0.14719694    -0.59400
N97         N  0.84704447  0.11857027  0.11554674    -0.06260
N98         N  0.88464726  0.10799000  0.10690318    -0.61900
C99         C  0.90768885  0.10589065  0.12872567     0.94870
C100        C  0.79045389  0.26185357  0.12456547     0.94650
N101        N  0.70026417  0.12621444  0.07396107    -0.07490
N102        N  0.67371461  0.13775507  0.05576894    -0.60000
N103        N  0.78640267  0.07186854  0.07244647    -0.05610
N104        N  0.80368926  0.05826779  0.05035667    -0.61250
N105        N  0.75392254  0.04756022  0.07781153    -0.07520
N106        N  0.74979342  0.01664865  0.06097319    -0.60270
N107        N  0.73408314  0.15037367  0.07323300    -0.05250
N108        N  0.73130314  0.17868015  0.05510710    -0.61340
Mn109      Mn  0.79100924  0.13474031  0.09345957     1.18440
C110        C  0.69364667  0.17083712  0.04434248     0.96960
C111        C  0.78077041  0.02290369  0.04397775     0.97620
N112        N  0.73894356  0.15628877  0.19091122    -0.07540
N113        N  0.74102492  0.15513671  0.21664585    -0.63850
N114        N  0.76381270  0.06336656  0.19036275    -0.06340
N115        N  0.76981402  0.03916285  0.21074334    -0.64520
N116        N  0.79736619  0.08694049  0.18662582    -0.07040
N117        N  0.82639626  0.07959681  0.20381171    -0.64110
N118        N  0.70204179  0.14108924  0.18403739    -0.05940
N119        N  0.67678082  0.13924394  0.20401416    -0.64800
Mn120      Mn  0.79371973  0.14326282  0.16452035     1.10660
C121        C  0.70171339  0.14375996  0.22451263     0.98180
C122        C  0.80942263  0.04956546  0.21874905     0.98250
N123        N  0.70443577  0.01184697  0.12306981    -0.07050
N124        N  0.71110545  0.97259497  0.11518928    -0.62430
N125        N  0.64812355  0.09306556  0.14621351    -0.06370
N126        N  0.61278696  0.10884175  0.15541986    -0.59160
N127        N  0.64710666  0.09090434  0.12091136    -0.07680
N128        N  0.61114440  0.10454223  0.11220357    -0.61990
N129        N  0.70745916  0.01479918  0.14835956    -0.06670
N130        N  0.71597653  0.97759265  0.15815795    -0.59180
Mn131      Mn  0.70033488  0.06880610  0.09882652     1.20190
Mn132      Mn  0.70503026  0.07728327  0.16756034     1.10090
Cl133      Cl  0.74798590  0.10611077  0.13088444    -0.87150
C134        C  0.71811892  0.95128957  0.13721009     0.95180
C135        C  0.59042989  0.11637078  0.13390301     0.94980
N136        N  0.81280463  0.66494449  0.07673438    -0.07300
N137        N  0.81639942  0.69685765  0.06119768    -0.59420
N138        N  0.77554057  0.56601986  0.07003390    -0.06980
N139        N  0.77332488  0.54154554  0.04948841    -0.61550
N140        N  0.74733493  0.59596148  0.06946023    -0.06580
N141        N  0.72615935  0.59276788  0.04746348    -0.59400
N142        N  0.84094797  0.63598463  0.07143184    -0.06260
N143        N  0.86298727  0.64790531  0.05067867    -0.61900
C144        C  0.84746615  0.68671918  0.04477277     0.94870
C145        C  0.74256915  0.55806438  0.03564700     0.94650
N146        N  0.81777729  0.50661149  0.13463701    -0.07490
N147        N  0.81195678  0.46721963  0.14172878    -0.60000
N148        N  0.89023106  0.57866909  0.11360920    -0.05610
N149        N  0.92903844  0.58489085  0.10539255    -0.61250
N150        N  0.88927570  0.57364246  0.13878187    -0.07520
N151        N  0.92772652  0.57717889  0.14825620    -0.60270
N152        N  0.82102826  0.50905721  0.10935378    -0.05250
N153        N  0.81698267  0.47074170  0.09872174    -0.61340
Mn154      Mn  0.83288789  0.57216640  0.09083953     1.18440
C155        C  0.81164825  0.44485215  0.11925423     0.96960
C156        C  0.95227110  0.58425750  0.12718001     0.97620
N157        N  0.69526960  0.63982449  0.11664970    -0.07540
N158        N  0.65690521  0.63910918  0.10726967    -0.63850
N159        N  0.76322872  0.70755356  0.14612969    -0.06340
N160        N  0.75982833  0.74635182  0.15599541    -0.64520
N161        N  0.76285645  0.70869067  0.12073342    -0.07040
N162        N  0.76012707  0.74788862  0.11295866    -0.64110
N163        N  0.69429865  0.63922005  0.14206720    -0.05940
N164        N  0.65506109  0.63729516  0.15042735    -0.64800
Mn165      Mn  0.75405239  0.65211563  0.09585445     1.10660
C166        C  0.63201677  0.63693946  0.12848385     0.98180
C167        C  0.75825500  0.77140976  0.13495220     0.98250
N168        N  0.83984085  0.61689227  0.18261039    -0.07050
N169        N  0.87112894  0.61846692  0.19865781    -0.62430
N170        N  0.74051772  0.58480004  0.18176411    -0.06370
N171        N  0.70869151  0.57691266  0.19723405    -0.59160
N172        N  0.76724825  0.55346688  0.18127701    -0.07680
N173        N  0.75412767  0.52395169  0.19753091    -0.61990
N174        N  0.81318013  0.64754460  0.18714324    -0.06670
N175        N  0.82568682  0.66975552  0.20786187    -0.59180
Mn176      Mn  0.82853076  0.56168417  0.15960338     1.20190
Mn177      Mn  0.75285356  0.64585083  0.16489381     1.10090
Cl178      Cl  0.79213636  0.60800874  0.12784352    -0.87150
C179        C  0.86262573  0.65133551  0.21414637     0.95180
C180        C  0.71687543  0.53885562  0.20683017     0.94980
N181        N  0.21104896  0.31427624  0.91945526    -0.07300
N182        N  0.20888294  0.28338007  0.93582030    -0.59420
N183        N  0.15274496  0.38471185  0.89032529    -0.06980
N184        N  0.11400901  0.39927497  0.89202504    -0.61550
N185        N  0.15197183  0.34661219  0.87972515    -0.06580
N186        N  0.11368201  0.33480266  0.87383152    -0.59400
N187        N  0.21360034  0.35126793  0.93139201    -0.06260
N188        N  0.21317465  0.34551630  0.95683465    -0.61900
C189        C  0.21030562  0.30267674  0.95901616     0.94870
C190        C  0.09016755  0.36761032  0.88140555     0.94650
N191        N  0.24517447  0.47246545  0.86479791    -0.07490
N192        N  0.24630829  0.51129032  0.85629962    -0.60000
N193        N  0.27321169  0.43413073  0.92240184    -0.05610
N194        N  0.28117228  0.44844814  0.94607364    -0.61250
N195        N  0.30444734  0.44369576  0.90662915    -0.07520
N196        N  0.33400096  0.46513656  0.91946519    -0.60270
N197        N  0.21429069  0.46780150  0.88173849    -0.05250
N198        N  0.19457859  0.50438898  0.88501023    -0.61340
Mn199      Mn  0.21241313  0.41019789  0.90723036     1.18440
C200        C  0.21467602  0.53128968  0.86866659     0.96960
C201        C  0.31925990  0.46747523  0.94412925     0.97620
N202        N  0.19743024  0.29532294  0.83694323    -0.07540
N203        N  0.16361892  0.28695345  0.82303687    -0.63850
N204        N  0.29087536  0.27130889  0.86292792    -0.06340
N205        N  0.31860935  0.24089540  0.86310686    -0.64520
N206        N  0.25909193  0.26280146  0.87813058    -0.07040
N207        N  0.26462544  0.22631014  0.88939573    -0.64110
N208        N  0.22980870  0.30205671  0.82191247    -0.05940
N209        N  0.21910763  0.29846068  0.79741033    -0.64800
Mn210      Mn  0.20430957  0.30435164  0.87869481     1.10660
C211        C  0.17780448  0.28852093  0.79831368     0.98180
C212        C  0.30209846  0.21315516  0.87992600     0.98250
N213        N  0.35136794  0.38738141  0.86452543    -0.07050
N214        N  0.38985155  0.39493966  0.87248177    -0.62430
N215        N  0.28480899  0.37765032  0.81319262    -0.06370
N216        N  0.29101859  0.37070124  0.78848851    -0.59160
N217        N  0.29711467  0.41573766  0.82042573    -0.07680
N218        N  0.31597447  0.43366541  0.80024711    -0.61990
N219        N  0.34780890  0.34921043  0.85437350    -0.06670
N220        N  0.38402156  0.32984070  0.85505631    -0.59180
Mn221      Mn  0.29996063  0.43083346  0.86373703     1.20190
Mn222      Mn  0.28885435  0.32497555  0.83799278     1.10090
Cl223      Cl  0.25123372  0.36804155  0.87203310    -0.87150
C224        C  0.40946327  0.35858765  0.86671889     0.95180
C225        C  0.31066830  0.40522318  0.78016188     0.94980
N226        N  0.30462035  0.80314967  0.90933542    -0.07300
N227        N  0.31620805  0.77088875  0.92387806    -0.59420
N228        N  0.22138361  0.78151201  0.88075870    -0.06980
N229        N  0.20104147  0.74493273  0.88413581    -0.61550
N230        N  0.25236401  0.77569453  0.86417123    -0.06580
N231        N  0.25324715  0.73628097  0.85600163    -0.59400
N232        N  0.27721244  0.82557637  0.92238685    -0.06260
N233        N  0.27292585  0.81258892  0.94586401    -0.61900
C234        C  0.29615100  0.77814015  0.94703443     0.94870
C235        C  0.22129957  0.71682148  0.86823437     0.94650
N236        N  0.16120499  0.90022065  0.87589395    -0.07490
N237        N  0.12509652  0.90396810  0.86392422    -0.60000
N238        N  0.22237527  0.90082292  0.92955459    -0.05610
N239        N  0.23699319  0.90583631  0.95344793    -0.61250
N240        N  0.21851830  0.93773972  0.91887714    -0.07520
N241        N  0.22997245  0.96817620  0.93499125    -0.60270
N242        N  0.16403897  0.86267938  0.88596493    -0.05250
N243        N  0.13014483  0.83998132  0.88124294    -0.61340
Mn244      Mn  0.22017472  0.84237304  0.90503030     1.18440
C245        C  0.10645352  0.86592280  0.86726780     0.96960
C246        C  0.24102436  0.94833097  0.95664658     0.97620
N247        N  0.31033443  0.82908605  0.82353567    -0.07540
N248        N  0.32761565  0.80856434  0.80355351    -0.63850
N249        N  0.36344875  0.89508450  0.85930105    -0.06340
N250        N  0.40321397  0.90830564  0.85845558    -0.64520
N251        N  0.36194018  0.85727070  0.86952872    -0.07040
N252        N  0.39946162  0.84477045  0.87601452    -0.64110
N253        N  0.30128790  0.86732989  0.81621887    -0.05940
N254        N  0.30803629  0.87224299  0.79159852    -0.64800
Mn255      Mn  0.30801989  0.81536765  0.86627759     1.10660
C256        C  0.32486708  0.83608789  0.78357340     0.98180
C257        C  0.42534055  0.87662532  0.86937187     0.98250
N258        N  0.26963250  0.98632306  0.87919332    -0.07050
N259        N  0.27298562  0.02378078  0.89046055    -0.62430
N260        N  0.24590740  0.94270287  0.82196054    -0.06370
N261        N  0.23594308  0.94146546  0.79713163    -0.59160
N262        N  0.21232709  0.95041844  0.83591994    -0.07680
N263        N  0.17917436  0.95494511  0.82112078    -0.61990
N264        N  0.30393159  0.97749489  0.86614424    -0.06670
N265        N  0.33104905  0.00927251  0.86771948    -0.59180
Mn266      Mn  0.21409837  0.94467523  0.87759184     1.20190
Mn267      Mn  0.30483938  0.92162093  0.84077059     1.10090
Cl268      Cl  0.26195607  0.88080333  0.87219805    -0.87150
C269        C  0.31163745  0.03755397  0.88350080     0.95180
C270        C  0.19420577  0.94961952  0.79681501     0.94980
N271        N  0.69504831  0.28086892  0.91132167    -0.07300
N272        N  0.69015113  0.24848366  0.92687442    -0.59420
N273        N  0.64737205  0.35978875  0.88221633    -0.06980
N274        N  0.60994115  0.37642645  0.88357155    -0.61550
N275        N  0.64663418  0.32437003  0.86872783    -0.06580
N276        N  0.60851847  0.31615127  0.86024244    -0.59400
N277        N  0.69512177  0.31652239  0.92473077    -0.06260
N278        N  0.69022331  0.30908816  0.94960119    -0.61900
C279        C  0.68723935  0.26650588  0.95083108     0.94870
C280        C  0.58640738  0.34914179  0.86954605     0.94650
N281        N  0.74077272  0.45043109  0.87351980    -0.07490
N282        N  0.74200982  0.49111285  0.86905551    -0.60000
N283        N  0.75227746  0.39734305  0.92905630    -0.05610
N284        N  0.74276968  0.41587912  0.95111960    -0.61250
N285        N  0.78529275  0.41561148  0.91846478    -0.07520
N286        N  0.79692472  0.44859746  0.93301389    -0.60270
N287        N  0.70594613  0.44012793  0.88584011    -0.05250
N288        N  0.68297635  0.47415965  0.88995980    -0.61340
Mn289      Mn  0.70003416  0.37824134  0.90552123     1.18440
C290        C  0.70552453  0.50551007  0.87881519     0.96960
C291        C  0.76991232  0.44826000  0.95335290     0.97620
N292        N  0.70555639  0.28840840  0.82638578    -0.07540
N293        N  0.67409237  0.29453019  0.81041803    -0.63850
N294        N  0.78973464  0.24987274  0.85818022    -0.06340
N295        N  0.81400040  0.21607840  0.85722874    -0.64520
N296        N  0.75353245  0.24029338  0.86887521    -0.07040
N297        N  0.75257725  0.20058832  0.87569383    -0.64110
N298        N  0.74137463  0.29945965  0.81547521    -0.05940
N299        N  0.73446102  0.31347291  0.79190922    -0.64800
Mn300      Mn  0.69980412  0.28212808  0.86866302     1.10660
C301        C  0.69237879  0.30946023  0.78872856     0.98180
C302        C  0.79037638  0.18543547  0.86854244     0.98250
N303        N  0.84819888  0.36815049  0.87889872    -0.07050
N304        N  0.88491736  0.37927448  0.88831582    -0.62430
N305        N  0.80634064  0.37255527  0.82084949    -0.06370
N306        N  0.82203720  0.37690672  0.79745982    -0.59160
N307        N  0.80695606  0.40878776  0.83365108    -0.07680
N308        N  0.82422636  0.43843719  0.81914420    -0.61990
N309        N  0.85059506  0.33232068  0.86552744    -0.06670
N310        N  0.88965565  0.31880289  0.86562994    -0.59180
Mn311      Mn  0.79567420  0.41086660  0.87599052     1.20190
Mn312      Mn  0.79791893  0.31221810  0.83963913     1.10090
Cl313      Cl  0.74864605  0.34578615  0.87257334    -0.87150
C314        C  0.91045134  0.34827393  0.88020830     0.95180
C315        C  0.83260166  0.41803594  0.79645975     0.94980
N316        N  0.73860127  0.91426564  0.90979364    -0.07300
N317        N  0.72038552  0.93899697  0.92754520    -0.59420
N318        N  0.81397874  0.93859961  0.87094193    -0.06980
N319        N  0.83320917  0.97603905  0.87299126    -0.61550
N320        N  0.77789759  0.94302797  0.85906171    -0.06580
N321        N  0.77299791  0.98223711  0.85208257    -0.59400
N322        N  0.77511128  0.90214377  0.91862610    -0.06260
N323        N  0.78222485  0.91704934  0.94194339    -0.61900
C324        C  0.74821172  0.93960553  0.94750450     0.94870
C325        C  0.80722239  0.00298340  0.86084913     0.94650
N326        N  0.87254741  0.81858796  0.85949481    -0.07490
N327        N  0.90900832  0.80904767  0.84898951    -0.60000
N328        N  0.83374031  0.82331710  0.91894281    -0.05610
N329        N  0.84214422  0.82060194  0.94395516    -0.61250
N330        N  0.83136914  0.78523037  0.90851358    -0.07520
N331        N  0.83855360  0.75610925  0.92578410    -0.60270
N332        N  0.87333329  0.85748371  0.86868126    -0.05250
N333        N  0.91022762  0.87513906  0.86474419    -0.61340
Mn334      Mn  0.82474045  0.88056919  0.89441903     1.18440
C335        C  0.93189446  0.84489110  0.85205874     0.96960
C336        C  0.84546506  0.77840098  0.94782852     0.97620
N337        N  0.71093805  0.89067232  0.82507327    -0.07540
N338        N  0.69456915  0.91516962  0.80722890    -0.63850
N339        N  0.66671333  0.82355968  0.86371003    -0.06340
N340        N  0.62646275  0.81246968  0.86245086    -0.64520
N341        N  0.67012551  0.86144872  0.87464387    -0.07040
N342        N  0.63291873  0.87617693  0.88093173    -0.64110
N343        N  0.71330028  0.85182998  0.81586007    -0.05940
N344        N  0.70030036  0.84913100  0.79193012    -0.64800
Mn345      Mn  0.72398206  0.90274160  0.86728373     1.10660
C346        C  0.68925248  0.88855536  0.78647142     0.98180
C347        C  0.60574593  0.84547724  0.87357552     0.98250
N348        N  0.76531528  0.73501281  0.87474667    -0.07050
N349        N  0.76475614  0.69806106  0.88596954    -0.62430
N350        N  0.77502080  0.77738518  0.81500740    -0.06370
N351        N  0.78174119  0.78094984  0.78969858    -0.59160
N352        N  0.81029451  0.76793065  0.82635639    -0.07680
N353        N  0.84097769  0.76432013  0.80944967    -0.61990
N354        N  0.72862008  0.74265533  0.86451006    -0.06670
N355        N  0.70243876  0.71073048  0.86847042    -0.59180
Mn356      Mn  0.82004622  0.77562883  0.86742527     1.20190
Mn357      Mn  0.72022273  0.79773089  0.83963857     1.10090
Cl358      Cl  0.77184514  0.83918168  0.86745031    -0.87150
C359        C  0.72524929  0.68329564  0.88223485     0.95180
C360        C  0.82325674  0.77217463  0.78654411     0.94980
N361        N  0.95776990  0.44118471  0.66857965    -0.07300
N362        N  0.92422102  0.44547919  0.68324382    -0.59420
N363        N  0.04415233  0.48315541  0.64223567    -0.06980
N364        N  0.06806642  0.51741542  0.64279574    -0.61550
N365        N  0.01007747  0.48939588  0.62866137    -0.06580
N366        N  0.01013551  0.52811700  0.61977149    -0.59400
N367        N  0.99111707  0.43476534  0.68270781    -0.06260
N368        N  0.98048303  0.43441307  0.70753606    -0.61900
C369        C  0.93841742  0.44116489  0.70752955     0.94870
C370        C  0.04685693  0.54486486  0.62829124     0.94650
N371        N  0.11799443  0.37817661  0.62909929    -0.07490
N372        N  0.15727348  0.37284086  0.62227026    -0.60000
N373        N  0.06113351  0.36470377  0.68299798    -0.05610
N374        N  0.06799285  0.35903712  0.70779224    -0.61250
N375        N  0.06835634  0.32979599  0.66965671    -0.07520
N376        N  0.08070688  0.29979724  0.68513929    -0.60270
N377        N  0.11396180  0.41267669  0.64339542    -0.05250
N378        N  0.15121982  0.43112727  0.64677782    -0.61340
Mn379      Mn  0.05307225  0.42473078  0.66350202     1.18440
C380        C  0.17795461  0.40574965  0.63330183     0.96960
C381        C  0.07944302  0.31822924  0.70891890     0.97620
N382        N  0.96097448  0.44061169  0.58421921    -0.07540
N383        N  0.95312175  0.47208406  0.56876879    -0.63850
N384        N  0.91790554  0.35576798  0.61164236    -0.06340
N385        N  0.88377942  0.33195293  0.61099028    -0.64520
N386        N  0.91117208  0.39120080  0.62452305    -0.07040
N387        N  0.87207073  0.39225392  0.63288006    -0.64110
N388        N  0.96659359  0.40549778  0.57081338    -0.05940
N389        N  0.96265035  0.41257435  0.54582124    -0.64800
Mn390      Mn  0.95933857  0.44163489  0.62648484     1.10660
C391        C  0.95413224  0.45433691  0.54480727     0.98180
C392        C  0.85568958  0.35483698  0.62460858     0.98250
N393        N  0.02040278  0.28095823  0.62527444    -0.07050
N394        N  0.02198772  0.24272691  0.63458248    -0.62430
N395        N  0.03626406  0.33542029  0.57133317    -0.06370
N396        N  0.04140448  0.32463753  0.54685109    -0.59160
N397        N  0.07052386  0.32815934  0.58447250    -0.07680
N398        N  0.09939623  0.31161897  0.56908016    -0.61990
N399        N  0.98631144  0.28556266  0.61153602    -0.06670
N400        N  0.96402939  0.25000509  0.61111285    -0.59180
Mn401      Mn  0.06981707  0.32890421  0.62706744     1.20190
Mn402      Mn  0.97625101  0.34511719  0.59076930     1.10090
Cl403      Cl  0.01471694  0.38518543  0.62690772    -0.87150
C404        C  0.98662506  0.22362611  0.62583435     0.95180
C405        C  0.08113395  0.31069385  0.54554557     0.94980
N406        N  0.95656712  0.82256221  0.66215065    -0.07300
N407        N  0.93600809  0.79414561  0.67600752    -0.59420
N408        N  0.91920541  0.90422179  0.63335328    -0.06980
N409        N  0.88267849  0.92352439  0.63326848    -0.61550
N410        N  0.91724072  0.86971583  0.61866518    -0.06580
N411        N  0.87987700  0.86515689  0.60848302    -0.59400
N412        N  0.96242713  0.85736807  0.67607516    -0.06260
N413        N  0.94653480  0.85301127  0.69950071    -0.61900
C414        C  0.93064665  0.81338751  0.69937789     0.94870
C415        C  0.85854445  0.89885063  0.61745182     0.94650
N416        N  0.02088864  0.98792025  0.62795244    -0.07490
N417        N  0.02299844  0.02802473  0.62180859    -0.60000
N418        N  0.03513661  0.92900056  0.68006979    -0.05610
N419        N  0.04347068  0.92785606  0.70517805    -0.61250
N420        N  0.06983214  0.93748325  0.66710881    -0.07520
N421        N  0.10193717  0.94206344  0.68278710    -0.60270
N422        N  0.98534925  0.97946981  0.63976823    -0.05250
N423        N  0.96238457  0.01383937  0.64191913    -0.61340
Mn424      Mn  0.97500591  0.91815209  0.65802918     1.18440
C425        C  0.98602915  0.04361975  0.63012823     0.96960
C426        C  0.08549059  0.93606511  0.70653038     0.97620
N427        N  0.97247464  0.81582848  0.57606680    -0.07540
N428        N  0.95586012  0.78689348  0.56000099    -0.63850
N429        N  0.05261188  0.78562392  0.60801215    -0.06340
N430        N  0.07630915  0.75156266  0.60835909    -0.64520
N431        N  0.01728716  0.77841114  0.62059891    -0.07040
N432        N  0.01623273  0.74026217  0.62987688    -0.64110
N433        N  0.00626869  0.83181350  0.56523527    -0.05940
N434        N  0.01146439  0.81676065  0.54166245    -0.64800
Mn435      Mn  0.96516872  0.82119870  0.61932137     1.10660
C436        C  0.98006180  0.78892504  0.53820889     0.98180
C437        C  0.05314692  0.72377600  0.62241007     0.98250
N438        N  0.12213047  0.89602114  0.62269578    -0.07050
N439        N  0.15980504  0.89825733  0.63309090    -0.62430
N440        N  0.06242187  0.90935614  0.56878262    -0.06370
N441        N  0.04352144  0.91791519  0.54675077    -0.59160
N442        N  0.06699721  0.94420339  0.58279292    -0.07680
N443        N  0.05168898  0.97657875  0.57041435    -0.61990
N444        N  0.11793866  0.86105125  0.60906876    -0.06670
N445        N  0.15257969  0.83875343  0.60973371    -0.59180
Mn446      Mn  0.07129796  0.94209320  0.62505296     1.20190
Mn447      Mn  0.06101744  0.84692013  0.58752153     1.10090
Cl448      Cl  0.01790805  0.88176736  0.62288430    -0.87150
C449        C  0.17859330  0.86225314  0.62488746     0.95180
C450        C  0.03704613  0.96007481  0.54793419     0.94980
N451        N  0.44935762  0.31864732  0.66889645    -0.07300
N452        N  0.41521082  0.30939166  0.68283094    -0.59420
N453        N  0.42340694  0.40066483  0.64246068    -0.06980
N454        N  0.38865163  0.42251370  0.64649563    -0.61550
N455        N  0.41559899  0.36865209  0.62650745    -0.06580
N456        N  0.37605742  0.36798509  0.61960083    -0.59400
N457        N  0.47188986  0.34662665  0.68193328    -0.06260
N458        N  0.45699677  0.35247996  0.70528044    -0.61900
C459        C  0.42126933  0.33031795  0.70583585     0.94870
C460        C  0.35942693  0.40189106  0.63181390     0.94650
N461        N  0.53366530  0.46923887  0.63234119    -0.07490
N462        N  0.53434475  0.50660433  0.62173981    -0.60000
N463        N  0.54571973  0.40694053  0.68427273    -0.05610
N464        N  0.55400685  0.39403522  0.70789181    -0.61250
N465        N  0.58072285  0.41292641  0.67137527    -0.07520
N466        N  0.61340176  0.40440404  0.68591143    -0.60270
N467        N  0.49876748  0.46364276  0.64529622    -0.05250
N468        N  0.47477720  0.49695434  0.64411257    -0.61340
Mn469      Mn  0.48490807  0.40502967  0.66372797     1.18440
C470        C  0.49735277  0.52338642  0.62927645     0.96960
C471        C  0.59651755  0.39333089  0.70892228     0.97620
N472        N  0.46161933  0.31137282  0.58191867    -0.07540
N473        N  0.43493241  0.29203823  0.56580453    -0.63850
N474        N  0.54024279  0.26829251  0.61214738    -0.06340
N475        N  0.56004388  0.23187746  0.61194447    -0.64520
N476        N  0.50458807  0.26500954  0.62517081    -0.07040
N477        N  0.49983761  0.22664516  0.63405759    -0.64110
N478        N  0.49788913  0.31729913  0.57004835    -0.05940
N479        N  0.49628657  0.30241504  0.54610408    -0.64800
Mn480      Mn  0.45709732  0.31509067  0.62538469     1.10660
C481        C  0.45686990  0.28730655  0.54333902     0.98180
C482        C  0.53474470  0.20634048  0.62602436     0.98250
N483        N  0.62339798  0.36820676  0.62613021    -0.07050
N484        N  0.66218476  0.36933579  0.63441181    -0.62430
N485        N  0.57004847  0.38895858  0.57221376    -0.06370
N486        N  0.57116161  0.39971361  0.54753327    -0.59160
N487        N  0.57762646  0.42243247  0.58702755    -0.07680
N488        N  0.58365980  0.45629533  0.57303056    -0.61990
N489        N  0.61630715  0.33421804  0.61192913    -0.06670
N490        N  0.65086804  0.31173417  0.60982586    -0.59180
Mn491      Mn  0.57959816  0.41932129  0.62924365     1.20190
Mn492      Mn  0.55688536  0.32663188  0.59088403     1.10090
Cl493      Cl  0.51925115  0.36628447  0.62675547    -0.87150
C494        C  0.67888649  0.33372193  0.62454046     0.95180
C495        C  0.57941242  0.44194335  0.54850615     0.94980
N496        N  0.57607514  0.81033329  0.66561885    -0.07300
N497        N  0.60792126  0.82317236  0.68005251    -0.59420
N498        N  0.49280736  0.76185975  0.63602994    -0.06980
N499        N  0.47006396  0.72691672  0.63539314    -0.61550
N500        N  0.52865807  0.75647032  0.62406620    -0.06580
N501        N  0.53109422  0.71773299  0.61472499    -0.59400
N502        N  0.54051703  0.81542809  0.67821773    -0.06260
N503        N  0.54789037  0.83200983  0.70145182    -0.61900
C504        C  0.59009589  0.83647029  0.70247438     0.94870
C505        C  0.49414161  0.69983530  0.62163513     0.94650
N506        N  0.41544010  0.86376503  0.62205578    -0.07490
N507        N  0.37613356  0.86822626  0.61538634    -0.60000
N508        N  0.46986207  0.87577225  0.67860460    -0.05610
N509        N  0.45764757  0.87142610  0.70249888    -0.61250
N510        N  0.45296577  0.90867040  0.66801107    -0.07520
N511        N  0.42534714  0.92518281  0.68464240    -0.60270
N512        N  0.42021071  0.82924084  0.63553532    -0.05250
N513        N  0.38331727  0.80995632  0.63837183    -0.61340
Mn514      Mn  0.48037781  0.81942828  0.65725277     1.18440
C515        C  0.35628822  0.83437143  0.62519724     0.96960
C516        C  0.42989037  0.90183361  0.70638565     0.97620
N517        N  0.57287128  0.80639392  0.58124828    -0.07540
N518        N  0.56229462  0.77402321  0.56612088    -0.63850
N519        N  0.61663523  0.89258857  0.61192568    -0.06340
N520        N  0.65103120  0.91609635  0.61129414    -0.64520
N521        N  0.62372194  0.85660647  0.62301042    -0.07040
N522        N  0.66300951  0.85485625  0.63046051    -0.64110
N523        N  0.56682377  0.84203416  0.56931425    -0.05940
N524        N  0.55207760  0.83422778  0.54583433    -0.64800
Mn525      Mn  0.57665254  0.80602797  0.62346361     1.10660
C526        C  0.54954535  0.79167205  0.54393412     0.98180
C527        C  0.67947753  0.89244698  0.62345430     0.98250
N528        N  0.50922279  0.96349585  0.62781473    -0.07050
N529        N  0.50305466  0.00235922  0.63590866    -0.62430
N530        N  0.50189387  0.90914883  0.57082061    -0.06370
N531        N  0.50505428  0.92135829  0.54695791    -0.59160
N532        N  0.46735980  0.92271173  0.58187640    -0.07680
N533        N  0.44810246  0.94804810  0.56560929    -0.61990
N534        N  0.54451232  0.96071726  0.61448627    -0.06670
N535        N  0.56270463  0.99848450  0.61324617    -0.59180
Mn536      Mn  0.46036120  0.91552115  0.62489409     1.20190
Mn537      Mn  0.55852488  0.90176544  0.59148994     1.10090
Cl538      Cl  0.51881956  0.86076474  0.62422658    -0.87150
C539        C  0.53636167  0.02404219  0.62686290     0.95180
C540        C  0.47183835  0.94558942  0.54357335     0.94980
N541        N  0.06180654  0.17557909  0.33645506    -0.07300
N542        N  0.09325698  0.17477920  0.32015858    -0.59420
N543        N  0.98925239  0.22985189  0.36752947    -0.06980
N544        N  0.97463655  0.26860424  0.36557025    -0.61550
N545        N  0.02630850  0.23132727  0.37862288    -0.06580
N546        N  0.03732416  0.27019602  0.38467584    -0.59400
N547        N  0.02560752  0.17159688  0.32454484    -0.06260
N548        N  0.03235303  0.16822889  0.29921000    -0.61900
C549        C  0.07503352  0.16981756  0.29707720     0.94870
C550        C  0.00509730  0.29314876  0.37662241     0.94650
N551        N  0.90430030  0.13173320  0.38934882    -0.07490
N552        N  0.86580127  0.13047479  0.39874877    -0.60000
N553        N  0.94495013  0.10984956  0.33082103    -0.05610
N554        N  0.92967544  0.10414554  0.30729203    -0.61250
N555        N  0.93652324  0.07673498  0.34507528    -0.07520
N556        N  0.91496635  0.04814533  0.33143185    -0.60270
N557        N  0.90948662  0.16482989  0.37441628    -0.05250
N558        N  0.87395735  0.18618883  0.37344675    -0.61340
Mn559      Mn  0.96662203  0.17010934  0.34864432     1.18440
C560        C  0.84707880  0.16475146  0.38911754     0.96960
C561        C  0.91160322  0.06534133  0.30776742     0.97620
N562        N  0.07762776  0.18338125  0.41898771    -0.07540
N563        N  0.08745724  0.21600443  0.43399795    -0.63850
N564        N  0.10672221  0.09361233  0.38860297    -0.06340
N565        N  0.13948684  0.06855637  0.38760680    -0.64520
N566        N  0.11379029  0.12769396  0.37532789    -0.07040
N567        N  0.15155518  0.12679985  0.36492390    -0.64110
N568        N  0.07145430  0.14956971  0.43267966    -0.05940
N569        N  0.07677488  0.15826750  0.45746500    -0.64800
Mn570      Mn  0.07003613  0.18019816  0.37731974     1.10660
C571        C  0.08682415  0.19988236  0.45802451     0.98180
C572        C  0.16697920  0.08936430  0.37232353     0.98250
N573        N  0.99348620  0.02779079  0.38460242    -0.07050
N574        N  0.98713014  0.98828807  0.37729137    -0.62430
N575        N  0.99808457  0.08679444  0.43875905    -0.06370
N576        N  0.00285237  0.07603037  0.46285661    -0.59160
N577        N  0.96015035  0.07717945  0.43043179    -0.07680
N578        N  0.93932196  0.05709664  0.44899477    -0.61990
N579        N  0.03125970  0.03275791  0.39430458    -0.06670
N580        N  0.05145805  0.99696517  0.39367605    -0.59180
Mn581      Mn  0.94767657  0.07789852  0.38762492     1.20190
Mn582      Mn  0.05200500  0.09036559  0.41376317     1.10090
Cl583      Cl  0.00858605  0.12982959  0.38189084    -0.87150
C584        C  0.02380237  0.96963679  0.38282703     0.95180
C585        C  0.96634660  0.05785390  0.46934355     0.94980
N586        N  0.12004769  0.68978298  0.34724410    -0.07300
N587        N  0.15362102  0.69575520  0.33245238    -0.59420
N588        N  0.03485854  0.73187091  0.37667092    -0.06980
N589        N  0.01494008  0.76773349  0.37752916    -0.61550
N590        N  0.06936612  0.73418208  0.39027117    -0.06580
N591        N  0.07379566  0.77217624  0.40074906    -0.59400
N592        N  0.08582692  0.68988231  0.33316359    -0.06260
N593        N  0.09541219  0.69587534  0.30863237    -0.61900
C594        C  0.13773362  0.69976937  0.30829838     0.94870
C595        C  0.03915746  0.79239992  0.39285691     0.94650
N596        N  0.94786626  0.63419146  0.37708954    -0.07490
N597        N  0.90719293  0.63079944  0.38094136    -0.60000
N598        N  0.01062140  0.62946853  0.32403171    -0.05610
N599        N  0.99934432  0.63852362  0.30057664    -0.61250
N600        N  0.99197833  0.59474307  0.33187492    -0.07520
N601        N  0.96516417  0.58129206  0.31386468    -0.60270
N602        N  0.95772786  0.67077353  0.36694305    -0.05250
N603        N  0.92315587  0.69297195  0.36365653    -0.61340
Mn604      Mn  0.02230001  0.68092034  0.35018285     1.18440
C605        C  0.89199298  0.66780450  0.37306609     0.96960
C606        C  0.97113127  0.60870637  0.29422901     0.97620
N607        N  0.10131023  0.67386954  0.43127848    -0.07540
N608        N  0.08773117  0.70424103  0.44696992    -0.63850
N609        N  0.14753750  0.59197527  0.39774670    -0.06340
N610        N  0.18051121  0.56676071  0.39697715    -0.64520
N611        N  0.15797456  0.62926828  0.38891265    -0.07040
N612        N  0.19774024  0.63004973  0.38168538    -0.64110
N613        N  0.09023293  0.63675408  0.44033520    -0.05940
N614        N  0.06898429  0.64177243  0.46227147    -0.64800
Mn615      Mn  0.11395247  0.68232700  0.38963826     1.10660
C616        C  0.06813925  0.68400404  0.46649277     0.98180
C617        C  0.21166852  0.59086270  0.38657698     0.98250
N618        N  0.03537260  0.53049596  0.37119210    -0.07050
N619        N  0.02488956  0.49296524  0.36202734    -0.62430
N620        N  0.02129875  0.57102932  0.43014885    -0.06370
N621        N  0.01364582  0.55940741  0.45396151    -0.59160
N622        N  0.98696510  0.56945805  0.41622819    -0.07680
N623        N  0.95509540  0.55553821  0.43044905    -0.61990
N624        N  0.06833525  0.52828935  0.38648537    -0.06670
N625        N  0.07970514  0.48848805  0.38836287    -0.59180
Mn626      Mn  0.99032560  0.58157921  0.37408830     1.20190
Mn627      Mn  0.08337882  0.58112047  0.41398307     1.10090
Cl628      Cl  0.05269668  0.63115176  0.38176350    -0.87150
C629        C  0.05265941  0.46705976  0.37264204     0.95180
C630        C  0.97238605  0.55034357  0.45408505     0.94980
N631        N  0.58875520  0.06987806  0.34422371    -0.07300
N632        N  0.62152112  0.05248771  0.33225542    -0.59420
N633        N  0.60315752  0.15686082  0.37413262    -0.06980
N634        N  0.63779459  0.18038623  0.37269514    -0.61550
N635        N  0.60905343  0.12543390  0.39006417    -0.06580
N636        N  0.64734592  0.12732390  0.39958125    -0.59400
N637        N  0.57411346  0.10022728  0.32989979    -0.06260
N638        N  0.59496279  0.10304214  0.30812648    -0.61900
C639        C  0.62409324  0.07326321  0.30949923     0.94870
C640        C  0.66507166  0.16194559  0.38896565     0.94650
N641        N  0.48530991  0.21420622  0.37511267    -0.07490
N642        N  0.47947858  0.25026347  0.38765037    -0.60000
N643        N  0.49240098  0.15094311  0.32038839    -0.05610
N644        N  0.48930928  0.13515800  0.29638606    -0.61250
N645        N  0.45466016  0.15549175  0.33031874    -0.07520
N646        N  0.42575666  0.14345149  0.31364816    -0.60270
N647        N  0.52353873  0.21238834  0.36579810    -0.05250
N648        N  0.54474116  0.24695438  0.37188245    -0.61340
Mn649      Mn  0.54813601  0.15601465  0.34696090     1.18440
C650        C  0.51701721  0.27028222  0.38555489     0.96960
C651        C  0.44717545  0.13091096  0.29244448     0.97620
N652        N  0.55087508  0.06512538  0.42850001    -0.07540
N653        N  0.56894523  0.04924982  0.44929993    -0.63850
N654        N  0.49121925  0.01002202  0.38902912    -0.06340
N655        N  0.47906741  0.96963476  0.38878209    -0.64520
N656        N  0.53046589  0.01248707  0.38082680    -0.07040
N657        N  0.54501063  0.97512864  0.37448825    -0.64110
N658        N  0.51139730  0.07223689  0.43412810    -0.05940
N659        N  0.50299569  0.06576310  0.45841209    -0.64800
Mn660      Mn  0.57043738  0.06767832  0.38635576     1.10660
C661        C  0.53841233  0.05111790  0.46803512     0.98180
C662        C  0.51308281  0.94837973  0.37929490     0.98250
N663        N  0.40240897  0.10467356  0.36760049    -0.07050
N664        N  0.36416417  0.10608517  0.35851268    -0.62430
N665        N  0.43760614  0.12687935  0.42674353    -0.06370
N666        N  0.43650800  0.13544197  0.45186258    -0.59160
N667        N  0.43204395  0.16149185  0.41372185    -0.07680
N668        N  0.42650308  0.19412797  0.42972635    -0.61990
N669        N  0.40769752  0.07022443  0.38084802    -0.06670
N670        N  0.37186803  0.04866432  0.38203839    -0.59180
Mn671      Mn  0.44302482  0.16022809  0.37159404     1.20190
Mn672      Mn  0.46122435  0.06850338  0.40745272     1.10090
Cl673      Cl  0.50586187  0.11281419  0.37801966    -0.87150
C674        C  0.34514558  0.07118487  0.36753027     0.95180
C675        C  0.42902295  0.17736353  0.45358766     0.94980
N676        N  0.48520207  0.63606642  0.33695271    -0.07300
N677        N  0.46114719  0.65332815  0.31921834    -0.59420
N678        N  0.45583591  0.56119502  0.37505804    -0.06980
N679        N  0.41960301  0.53991917  0.37379989    -0.61550
N680        N  0.44936639  0.59863644  0.38577927    -0.06580
N681        N  0.40959083  0.60310560  0.39212626    -0.59400
N682        N  0.49801417  0.59906806  0.32827354    -0.06260
N683        N  0.48433195  0.59088982  0.30494843    -0.61900
C684        C  0.46155690  0.62453294  0.29932294     0.94870
C685        C  0.39116546  0.56621820  0.38517284     0.94650
N686        N  0.57337957  0.50128953  0.38910700    -0.07490
N687        N  0.57944761  0.46642276  0.40199711    -0.60000
N688        N  0.57579646  0.53986483  0.32973365    -0.05610
N689        N  0.58162454  0.53181411  0.30466838    -0.61250
N690        N  0.61231938  0.54212931  0.34132978    -0.07520
N691        N  0.64322224  0.53530737  0.32484495    -0.60270
N692        N  0.53572026  0.50092629  0.37898976    -0.05250
N693        N  0.51529872  0.46606392  0.38476280    -0.61340
Mn694      Mn  0.51616188  0.54939993  0.35282639     1.18440
C695        C  0.54267429  0.44506912  0.39940570     0.96960
C696        C  0.62406812  0.52874633  0.30193206     0.97620
N697        N  0.49968980  0.66619397  0.42161638    -0.07540
N698        N  0.47413456  0.68444622  0.43877540    -0.63850
N699        N  0.57122209  0.70852967  0.38507444    -0.06340
N700        N  0.58234624  0.74904322  0.38675201    -0.64520
N701        N  0.53462189  0.70504272  0.37327184    -0.07040
N702        N  0.52088119  0.74233297  0.36673780    -0.64110
N703        N  0.53738543  0.66357917  0.43159004    -0.05940
N704        N  0.53827675  0.67827893  0.45531021    -0.64800
Mn705      Mn  0.49188175  0.65186381  0.37933071     1.10660
C706        C  0.49898335  0.69060636  0.45987553     0.98180
C707        C  0.55091653  0.76952579  0.37473214     0.98250
N708        N  0.66014996  0.60789301  0.37692926    -0.07050
N709        N  0.69855973  0.60730184  0.36740384    -0.62430
N710        N  0.60994346  0.60041515  0.43480377    -0.06370
N711        N  0.60383876  0.59488198  0.45999137    -0.59160
N712        N  0.62082341  0.56444691  0.42385486    -0.07680
N713        N  0.62341657  0.53445016  0.44096851    -0.61990
N714        N  0.65185833  0.64532489  0.38691995    -0.06670
N715        N  0.68483331  0.67082076  0.38453449    -0.59180
Mn716      Mn  0.61767386  0.55359866  0.38262430     1.20190
Mn717      Mn  0.59365695  0.65512732  0.40968335     1.10090
Cl718      Cl  0.55484624  0.60285861  0.38089764    -0.87150
C719        C  0.71366504  0.64681225  0.37193890     0.95180
C720        C  0.61326306  0.55357418  0.46350135     0.94980
C721        C  0.55167842  0.88675474  0.36109988    -0.27500
C722        C  0.51954841  0.90176122  0.37764627    -0.15580
C723        C  0.49883694  0.87285280  0.39392107     0.35050
C724        C  0.51035584  0.82992124  0.39299529    -0.26950
C725        C  0.54289570  0.81544837  0.37671446    -0.16190
C726        C  0.56342476  0.84406948  0.36043354     0.36140
N727        N  0.59582928  0.82962617  0.34311127    -0.90440
H728        H  0.56799700  0.90860874  0.34858927     0.17250
H729        H  0.49409719  0.80756536  0.40521679     0.17240
N730        N  0.46715754  0.88714567  0.41176334    -0.89470
H731        H  0.60813402  0.85472955  0.33253154     0.34620
H732        H  0.58201319  0.80869615  0.32971820     0.39720
H733        H  0.48183253  0.90730734  0.42522861     0.39340
H734        H  0.45489555  0.86185533  0.42219902     0.34230
C735        C  0.57213820  0.37399411  0.40082805    -0.27500
C736        C  0.53740965  0.40003607  0.40438139    -0.15580
C737        C  0.49702498  0.38213054  0.40683808     0.35050
C738        C  0.49153152  0.33874964  0.40242701    -0.26950
C739        C  0.52561914  0.31342600  0.39527858    -0.16190
C740        C  0.56671916  0.33075240  0.39586944     0.36140
N741        N  0.60264788  0.30520342  0.39014050    -0.90440
H742        H  0.60325589  0.38786790  0.39926866     0.17250
H743        H  0.46014365  0.32531819  0.40292538     0.17240
N744        N  0.46159239  0.40846966  0.41238336    -0.89470
H745        H  0.63023488  0.32127475  0.39538292     0.34620
H746        H  0.60420403  0.30117116  0.37005450     0.39720
H747        H  0.46594711  0.42182196  0.43082208     0.39340
H748        H  0.43398463  0.39039593  0.41320928     0.34230
C749        C  0.77660605  0.69276033  0.38216943    -0.27500
C750        C  0.75851094  0.65897612  0.36788265    -0.15580
C751        C  0.78468743  0.63416096  0.35183016     0.35050
C752        C  0.82813150  0.64112352  0.35194498    -0.26950
C753        C  0.84662657  0.67218943  0.36800295    -0.16190
C754        C  0.82041679  0.69958640  0.38252564     0.36140
N755        N  0.83704752  0.73263518  0.39903444    -0.90440
H756        H  0.75694538  0.71243863  0.39440962     0.17250
H757        H  0.84787936  0.62007774  0.34063150     0.17240
N758        N  0.76750832  0.60054471  0.33614315    -0.89470
H759        H  0.82573601  0.76121683  0.39233395     0.34620
H760        H  0.86966735  0.73460492  0.39761595     0.39720
H761        H  0.78168515  0.57241453  0.34136198     0.39340
H762        H  0.77507411  0.60628943  0.31686677     0.34230
C763        C  0.32649487  0.59246936  0.36552894    -0.27500
C764        C  0.34471226  0.56343045  0.38210912    -0.15580
C765        C  0.31797235  0.53934951  0.39830553     0.35050
C766        C  0.27428230  0.54694056  0.39850709    -0.26950
C767        C  0.25658522  0.57822988  0.38307603    -0.16190
C768        C  0.28316930  0.59989366  0.36572807     0.36140
N769        N  0.26648673  0.63018504  0.34846417    -0.90440
H770        H  0.34646308  0.61116324  0.35305829     0.17250
H771        H  0.25442057  0.52970405  0.41180453     0.17240
N772        N  0.33406062  0.50878154  0.41572166    -0.89470
H773        H  0.27403223  0.62073830  0.32954387     0.34620
H774        H  0.28132315  0.65923659  0.35221513     0.39720
H775        H  0.36650073  0.50593945  0.41375799     0.39340
H776        H  0.32114730  0.47944338  0.41038766     0.34230
C777        C  0.77883581  0.19288682  0.37214730    -0.27500
C778        C  0.80076866  0.17159636  0.39141489    -0.15580
C779        C  0.77741107  0.15285106  0.41152958     0.35050
C780        C  0.73340903  0.15264385  0.41097909    -0.26950
C781        C  0.71123347  0.17112862  0.39082424    -0.16190
C782        C  0.73434274  0.19317958  0.37174060     0.36140
N783        N  0.71287688  0.21406338  0.35137067    -0.90440
H784        H  0.79634387  0.20777644  0.35673138     0.17250
H785        H  0.71646478  0.13650734  0.42616852     0.17240
N786        N  0.79823414  0.13316234  0.43250550    -0.89470
H787        H  0.73436919  0.22725068  0.33839709     0.34620
H788        H  0.69654499  0.23924165  0.35978677     0.39720
H789        H  0.78850283  0.10156500  0.43293516     0.39340
H790        H  0.78853010  0.14787891  0.44974173     0.34230
C791        C  0.27349122  0.03830819  0.36297675    -0.27500
C792        C  0.29949849  0.07159338  0.37168534    -0.15580
C793        C  0.28152251  0.10858949  0.38233345     0.35050
C794        C  0.23818132  0.11319266  0.38193498    -0.26950
C795        C  0.21211226  0.08108066  0.37216599    -0.16190
C796        C  0.22944325  0.04264384  0.36337772     0.36140
N797        N  0.20247386  0.00891653  0.35436658    -0.90440
H798        H  0.28746718  0.00985398  0.35507915     0.17250
H799        H  0.22453060  0.14205450  0.38953668     0.17240
N800        N  0.30759705  0.14172159  0.39322786    -0.89470
H801        H  0.22021359  0.98285352  0.34857135     0.34620
H802        H  0.18710515  0.01928041  0.33790202     0.39720
H803        H  0.32264243  0.12958631  0.40932876     0.39340
H804        H  0.28947126  0.16691604  0.39999172     0.34230
C805        C  0.99238853  0.89887719  0.38528339    -0.27500
C806        C  0.02868969  0.92407648  0.38404567    -0.15580
C807        C  0.06852165  0.90609129  0.38722332     0.35050
C808        C  0.07104115  0.86309881  0.39222224    -0.26950
C809        C  0.03470794  0.83797716  0.39331781    -0.16190
C810        C  0.99495835  0.85590499  0.39004850     0.36140
N811        N  0.95746453  0.83031236  0.39143423    -0.90440
H812        H  0.96178870  0.91284823  0.38323618     0.17250
H813        H  0.10156274  0.84882906  0.39398139     0.17240
N814        N  0.10614173  0.93131673  0.38502985    -0.89470
H815        H  0.93084237  0.84842134  0.38834372     0.34620
H816        H  0.95504085  0.81908100  0.41026367     0.39720
H817        H  0.10809280  0.94174929  0.36599969     0.39340
H818        H  0.13271809  0.91311782  0.38806892     0.34230
C819        C  0.03044586  0.40100174  0.35095390    -0.27500
C820        C  0.04321543  0.42172198  0.37379586    -0.15580
C821        C  0.03837820  0.40139772  0.39764320     0.35050
C822        C  0.02168124  0.36030740  0.39793941    -0.26950
C823        C  0.00992339  0.33903982  0.37501401    -0.16190
C824        C  0.01452371  0.35971592  0.35107734     0.36140
N825        N  0.00584313  0.33968372  0.32647002    -0.90440
H826        H  0.03319144  0.41708503  0.33269369     0.17250
H827        H  0.01926464  0.34403039  0.41615073     0.17240
N828        N  0.04902041  0.42287733  0.42148953    -0.89470
H829        H  0.98118574  0.35584838  0.31805723     0.34620
H830        H  0.99595191  0.30848445  0.32814530     0.39720
H831        H  0.08161981  0.42661116  0.42183832     0.39340
H832        H  0.04111501  0.40428117  0.43731624     0.34230
C833        C  0.50039699  0.01446102  0.53196910    -0.27500
C834        C  0.47774322  0.97813658  0.52408590    -0.15580
C835        C  0.48099946  0.96421193  0.49816811     0.35050
C836        C  0.50911833  0.98449772  0.48133597    -0.26950
C837        C  0.53152064  0.02116149  0.48900097    -0.16190
C838        C  0.52647495  0.03648685  0.51468298     0.36140
N839        N  0.54759235  0.07411771  0.52385889    -0.90440
H840        H  0.49991499  0.02429680  0.55216182     0.17250
H841        H  0.51016295  0.97431940  0.46119893     0.17240
N842        N  0.45486568  0.92989673  0.48892933    -0.89470
H843        H  0.52473796  0.09654126  0.52822153     0.34620
H844        H  0.56703726  0.08672720  0.50955777     0.39720
H845        H  0.46269606  0.90278680  0.49877922     0.39340
H846        H  0.46065072  0.92357011  0.46934870     0.34230
C847        C  0.52064282  0.72403649  0.52609405    -0.27500
C848        C  0.52740507  0.76744487  0.52291133    -0.15580
C849        C  0.51258567  0.78618814  0.50010889     0.35050
C850        C  0.49474377  0.76047066  0.48038707    -0.26950
C851        C  0.49126712  0.71661732  0.48304510    -0.16190
C852        C  0.50204290  0.69864025  0.50671905     0.36140
N853        N  0.49714216  0.65381397  0.51003620    -0.90440
H854        H  0.53227506  0.70943526  0.54318706     0.17250
H855        H  0.48774865  0.77406907  0.46185267     0.17240
N856        N  0.51785325  0.83065817  0.49631265    -0.89470
H857        H  0.50611709  0.64529282  0.52852013     0.34620
H858        H  0.51776707  0.63822142  0.49746812     0.39720
H859        H  0.49862592  0.84576454  0.50989724     0.39340
H860        H  0.50684169  0.83902653  0.47813270     0.34230
C861        C  0.62488621  0.46856662  0.51341207    -0.27500
C862        C  0.58593118  0.46958721  0.52602780    -0.15580
C863        C  0.55676559  0.50100139  0.51935297     0.35050
C864        C  0.56736429  0.53026588  0.50012440    -0.26950
C865        C  0.60615475  0.52870651  0.48721757    -0.16190
C866        C  0.63529274  0.49771458  0.49413146     0.36140
N867        N  0.67551572  0.49607320  0.48148136    -0.90440
H868        H  0.64764961  0.44538807  0.51901053     0.17250
H869        H  0.54441870  0.55323754  0.49449510     0.17240
N870        N  0.51606424  0.50387816  0.53134718    -0.89470
H871        H  0.69334228  0.47151559  0.48869323     0.34620
H872        H  0.69161914  0.52411068  0.48611550     0.39720
H873        H  0.51118754  0.48024555  0.54484596     0.39340
H874        H  0.49367455  0.49868152  0.51690826     0.34230
C875        C  0.40442488  0.23476484  0.48427051    -0.27500
C876        C  0.43350346  0.20305175  0.47795007    -0.15580
C877        C  0.46850748  0.19793318  0.49418321     0.35050
C878        C  0.47448884  0.22543043  0.51554507    -0.26950
C879        C  0.44582658  0.25737104  0.52178232    -0.16190
C880        C  0.40991597  0.26156926  0.50629599     0.36140
N881        N  0.37985015  0.29358037  0.51255425    -0.90440
H882        H  0.37754761  0.23878737  0.47188791     0.17250
H883        H  0.50205815  0.22202566  0.52744654     0.17240
N884        N  0.49910741  0.16620213  0.48824512    -0.89470
H885        H  0.35518889  0.29248089  0.49932015     0.34620
H886        H  0.39475396  0.32289073  0.51049628     0.39720
H887        H  0.48514760  0.13690744  0.49188641     0.39340
H888        H  0.52461994  0.16893507  0.50079452     0.34230
C889        C  0.50432830  0.58568542  0.60259315    -0.27500
C890        C  0.48594039  0.56679725  0.62409056    -0.15580
C891        C  0.46237530  0.59120332  0.64191300     0.35050
C892        C  0.46273738  0.63513508  0.63959213    -0.26950
C893        C  0.48589881  0.65435233  0.61983267    -0.16190
C894        C  0.50461530  0.62912780  0.60035797     0.36140
N895        N  0.52341860  0.64673221  0.57787521    -0.90440
H896        H  0.52069960  0.56676465  0.58815584     0.17250
H897        H  0.44727988  0.65439113  0.65421766     0.17240
N898        N  0.44086504  0.57187071  0.66321434    -0.89470
H899        H  0.55060256  0.66343012  0.58301407     0.34620
H900        H  0.50150329  0.66734423  0.57041159     0.39720
H901        H  0.41621975  0.55365942  0.65551916     0.39340
H902        H  0.42705152  0.59475398  0.67520935     0.34230
C903        C  0.50022846  0.13710001  0.62545508    -0.27500
C904        C  0.53806620  0.15988165  0.62686778    -0.15580
C905        C  0.57632933  0.13755967  0.62790605     0.35050
C906        C  0.57530673  0.09314037  0.62731019    -0.26950
C907        C  0.53711933  0.07068143  0.62651619    -0.16190
C908        C  0.49914643  0.09313743  0.62528659     0.36140
N909        N  0.45941907  0.07142999  0.62293347    -0.90440
H910        H  0.47084377  0.15371108  0.62415780     0.17250
H911        H  0.60447297  0.07609273  0.62832065     0.17240
N912        N  0.61636529  0.15829724  0.63087492    -0.89470
H913        H  0.43617428  0.09196455  0.61689112     0.34620
H914        H  0.45049989  0.06212192  0.64146907     0.39720
H915        H  0.61351710  0.19058963  0.63442836     0.39340
H916        H  0.63301551  0.15417321  0.61356502     0.34230
C917        C  0.99625480  0.96354715  0.50656674    -0.27500
C918        C  0.01011757  0.98357647  0.52955509    -0.15580
C919        C  0.99799907  0.02589408  0.53453429     0.35050
C920        C  0.97665233  0.04806135  0.51545752    -0.26950
C921        C  0.96658589  0.02930347  0.49152618    -0.16190
C922        C  0.97496780  0.98603442  0.48741679     0.36140
N923        N  0.96468385  0.96587237  0.46308679    -0.90440
H924        H  0.00408560  0.93084013  0.50283479     0.17250
H925        H  0.97097206  0.08146052  0.51841981     0.17240
N926        N  0.00844752  0.04692856  0.55853396    -0.89470
H927        H  0.97211598  0.93385545  0.46333479     0.34620
H928        H  0.98365703  0.97928887  0.44880380     0.39720
H929        H  0.99036064  0.03266947  0.57291277     0.39340
H930        H  0.99945285  0.07852910  0.55841785     0.34230
C931        C  0.01564386  0.73967719  0.47594311    -0.27500
C932        C  0.03894364  0.70563421  0.48505993    -0.15580
C933        C  0.03364184  0.69403499  0.51129134     0.35050
C934        C  0.00733595  0.71813006  0.52768478    -0.26950
C935        C  0.98715760  0.75440025  0.51901056    -0.16190
C936        C  0.99038008  0.76436758  0.49260133     0.36140
N937        N  0.96939588  0.80076151  0.48300117    -0.90440
H938        H  0.01844263  0.74818360  0.45580406     0.17250
H939        H  0.00663152  0.71123697  0.54813785     0.17240
N940        N  0.05729662  0.66103291  0.52279704    -0.89470
H941        H  0.97396831  0.80316390  0.46304533     0.34620
H942        H  0.98333417  0.82767474  0.49138115     0.39720
H943        H  0.07874808  0.64755799  0.50993927     0.39340
H944        H  0.03624259  0.63727290  0.52825626     0.34230
C945        C  0.79111847  0.93443779  0.62842754    -0.27500
C946        C  0.81244210  0.90150179  0.61558943    -0.15580
C947        C  0.78898999  0.86853439  0.60358403     0.35050
C948        C  0.74564618  0.86740596  0.60634149    -0.26950
C949        C  0.72464215  0.89873973  0.62038070    -0.16190
C950        C  0.74723459  0.93359015  0.63088568     0.36140
N951        N  0.72719335  0.96764490  0.64470207    -0.90440
H952        H  0.80864561  0.96021247  0.63742173     0.17250
H953        H  0.72820194  0.84127107  0.59760972     0.17240
N954        N  0.80883254  0.83524163  0.58913823    -0.89470
H955        H  0.73776522  0.96740745  0.66379170     0.34620
H956        H  0.69472915  0.96337643  0.64549440     0.39720
H957        H  0.79670628  0.83472625  0.57039778     0.39340
H958        H  0.80098349  0.80658742  0.59773192     0.34230
C959        C  0.23903649  0.81301097  0.61995884    -0.27500
C960        C  0.22348703  0.85214648  0.62895830    -0.15580
C961        C  0.25176195  0.88192827  0.63999802     0.35050
C962        C  0.29466337  0.87328339  0.63985103    -0.26950
C963        C  0.31047660  0.83549877  0.62941980    -0.16190
C964        C  0.28218709  0.80420601  0.62014767     0.36140
N965        N  0.29597782  0.76455765  0.60942478    -0.90440
H966        H  0.21769924  0.78951667  0.61182045     0.17250
H967        H  0.31637312  0.89746503  0.64678061     0.17240
N968        N  0.23747410  0.92173607  0.65024743    -0.89470
H969        H  0.28335487  0.74070317  0.62090075     0.34620
H970        H  0.32849856  0.76187917  0.61041047     0.39720
H971        H  0.22939198  0.94020952  0.63455124     0.39340
H972        H  0.26178792  0.93802151  0.65973597     0.34230
C973        C  0.95393372  0.52325512  0.52292766    -0.27500
C974        C  0.94945052  0.47911535  0.52085205    -0.15580
C975        C  0.94247712  0.46054732  0.49604142     0.35050
C976        C  0.94401285  0.48580926  0.47406279    -0.26950
C977        C  0.95309604  0.52907540  0.47623639    -0.16190
C978        C  0.95629458  0.54827736  0.50088216     0.36140
N979        N  0.96470083  0.59285075  0.50326356    -0.90440
H980        H  0.95825919  0.53821965  0.54173754     0.17250
H981        H  0.94199949  0.47087345  0.45507759     0.17240
N982        N  0.93496645  0.41623864  0.49234188    -0.89470
H983        H  0.96641488  0.60216925  0.52272767     0.34620
H984        H  0.93911365  0.60847759  0.49553217     0.39720
H985        H  0.90945601  0.40732095  0.50387843     0.39340
H986        H  0.96156238  0.39991624  0.49793263     0.34230
C987        C  0.10794781  0.26733582  0.47957362    -0.27500
C988        C  0.09218986  0.22589860  0.48180931    -0.15580
C989        C  0.07921808  0.21142564  0.50631928     0.35050
C990        C  0.08077918  0.23929163  0.52762908    -0.26950
C991        C  0.09350907  0.28139305  0.52484275    -0.16190
C992        C  0.10846623  0.29540931  0.50077455     0.36140
N993        N  0.12274344  0.33804408  0.49692064    -0.90440
H994        H  0.11848242  0.27865603  0.46096781     0.17250
H995        H  0.06864176  0.22910057  0.54615164     0.17240
N996        N  0.06211088  0.16959977  0.50935817    -0.89470
H997        H  0.15417319  0.33678741  0.49112679     0.34620
H998        H  0.12226093  0.35562371  0.51418818     0.39720
H999        H  0.03309471  0.16842372  0.50004050     0.39340
H1000       H  0.05587337  0.16367213  0.52883192     0.34230
C1001       C  0.07887191  0.60898308  0.60936256    -0.27500
C1002       C  0.05515877  0.59037094  0.62913996    -0.15580
C1003       C  0.03675228  0.61597221  0.64861967     0.35050
C1004       C  0.04076771  0.65962291  0.64709199    -0.26950
C1005       C  0.06166388  0.67870833  0.62632226    -0.16190
C1006       C  0.08245765  0.65323403  0.60776417     0.36140
N1007       N  0.10465917  0.67210855  0.58660135    -0.90440
H1008       H  0.09309468  0.58901856  0.59460155     0.17250
H1009       H  0.02514198  0.67893934  0.66164688     0.17240
N1010       N  0.01263195  0.59912404  0.66975660    -0.89470
H1011       H  0.11669884  0.64882429  0.57415523     0.34620
H1012       H  0.13048771  0.68848420  0.59432421     0.39720
H1013       H  0.01221089  0.56623996  0.66973524     0.39340
H1014       H  0.98159977  0.60862108  0.66753314     0.34230
C1015       C  0.00167562  0.15787957  0.64859093    -0.27500
C1016       C  0.97834798  0.17795017  0.62954658    -0.15580
C1017       C  0.95225278  0.15324181  0.61305078     0.35050
C1018       C  0.95306897  0.10886447  0.61461945    -0.26950
C1019       C  0.97884446  0.08918186  0.63252877    -0.16190
C1020       C  0.00237584  0.11405311  0.65027966     0.36140
N1021       N  0.02806092  0.09608912  0.66993088    -0.90440
H1022       H  0.02102305  0.17636463  0.66184591     0.17250
H1023       H  0.93511283  0.08955087  0.60105916     0.17240
N1024       N  0.92687185  0.17287780  0.59395805    -0.89470
H1025       H  0.05939174  0.10259879  0.66526494     0.34620
H1026       H  0.02462225  0.06337434  0.67070781     0.39720
H1027       H  0.90384026  0.19009669  0.60382041     0.39340
H1028       H  0.91099021  0.15005969  0.58276924     0.34230
C1029       C  0.79304152  0.31194336  0.63631074    -0.27500
C1030       C  0.81071965  0.34626389  0.62321319    -0.15580
C1031       C  0.78536470  0.37148889  0.60775048     0.35050
C1032       C  0.74258825  0.36345116  0.60673451    -0.26950
C1033       C  0.72419938  0.33122371  0.62123197    -0.16190
C1034       C  0.74958551  0.30429550  0.63573341     0.36140
N1035       N  0.73238907  0.27050902  0.65078665    -0.90440
H1036       H  0.81284577  0.29197091  0.64768571     0.17250
H1037       H  0.72309312  0.38414831  0.59560396     0.17240
N1038       N  0.80218631  0.40563121  0.59298002    -0.89470
H1039       H  0.74476551  0.24233633  0.64342033     0.34620
H1040       H  0.69992677  0.26800646  0.64860195     0.39720
H1041       H  0.82556434  0.39389437  0.58065932     0.39340
H1042       H  0.81553032  0.42804184  0.60561323     0.34230
C1043       C  0.28993363  0.36831281  0.63361590    -0.27500
C1044       C  0.31330932  0.40596420  0.63454407    -0.15580
C1045       C  0.29205014  0.44466525  0.63723731     0.35050
C1046       C  0.24752721  0.44460695  0.63740056    -0.26950
C1047       C  0.22445773  0.40655056  0.63514253    -0.16190
C1048       C  0.24635633  0.36810641  0.63408948     0.36140
N1049       N  0.22456335  0.32826238  0.63387806    -0.90440
H1050       H  0.30561388  0.33818363  0.63253838     0.17250
H1051       H  0.23091662  0.47417217  0.63862569     0.17240
N1052       N  0.31540600  0.48364440  0.63870963    -0.89470
H1053       H  0.23423451  0.31131579  0.64988581     0.34620
H1054       H  0.23331226  0.31145517  0.61715417     0.39720
H1055       H  0.33191627  0.48405836  0.65610980     0.39340
H1056       H  0.29501753  0.50919667  0.63970637     0.34230
C1057       C  0.62018249  0.89262567  0.76612942    -0.27500
C1058       C  0.66391504  0.89510672  0.76329334    -0.15580
C1059       C  0.68211437  0.88427720  0.73927440     0.35050
C1060       C  0.65696774  0.86695751  0.71948465    -0.26950
C1061       C  0.61378075  0.85965389  0.72322516    -0.16190
C1062       C  0.59481183  0.87463287  0.74644216     0.36140
N1063       N  0.55043034  0.86974031  0.75061852    -0.90440
H1064       H  0.60634745  0.90002469  0.78483554     0.17250
H1065       H  0.67177664  0.85711802  0.70150304     0.17240
N1066       N  0.72686407  0.88718233  0.73604143    -0.89470
H1067       H  0.54148427  0.88404017  0.76814402     0.34620
H1068       H  0.54404223  0.83751150  0.75245180     0.39720
H1069       H  0.73534167  0.91908364  0.73757315     0.39340
H1070       H  0.73572094  0.87691625  0.71749535     0.34230
C1071       C  0.89309368  0.78579390  0.76662699    -0.27500
C1072       C  0.84968395  0.77932611  0.76299672    -0.15580
C1073       C  0.83363684  0.78083378  0.73765464     0.35050
C1074       C  0.86123126  0.78945004  0.71678185    -0.26950
C1075       C  0.90434334  0.79713595  0.72081512    -0.16190
C1076       C  0.92032315  0.79498243  0.74614642     0.36140
N1077       N  0.96403553  0.80151096  0.75194296    -0.90440
H1078       H  0.90635101  0.78472531  0.78583863     0.17250
H1079       H  0.84879918  0.79182572  0.69742054     0.17240
N1080       N  0.78960852  0.77423719  0.73320427    -0.89470
H1081       H  0.96680858  0.82934391  0.76300497     0.34620
H1082       H  0.98226081  0.80535068  0.73532534     0.39720
H1083       H  0.78230447  0.74312976  0.73805856     0.39340
H1084       H  0.78282509  0.77702158  0.71356434     0.34230
C1085       C  0.65840375  0.35274601  0.72333233    -0.27500
C1086       C  0.62131439  0.37408254  0.73012952    -0.15580
C1087       C  0.60824596  0.37394780  0.75643675     0.35050
C1088       C  0.63120903  0.35096201  0.77445874    -0.26950
C1089       C  0.66819948  0.32956118  0.76762768    -0.16190
C1090       C  0.68165203  0.33022127  0.74144589     0.36140
N1091       N  0.71767142  0.30748644  0.73215631    -0.90440
H1092       H  0.66886946  0.35215988  0.70335576     0.17250
H1093       H  0.62076807  0.35141468  0.79444589     0.17240
N1094       N  0.57294558  0.39760311  0.76595858    -0.89470
H1095       H  0.70742197  0.28631349  0.71771628     0.34620
H1096       H  0.73031889  0.28877990  0.74641254     0.39720
H1097       H  0.56202593  0.41823818  0.75218594     0.39340
H1098       H  0.58362599  0.41729889  0.78104002     0.34230
C1099       C  0.84097021  0.43515951  0.75063354    -0.27500
C1100       C  0.85872546  0.43425751  0.77521398    -0.15580
C1101       C  0.90256176  0.43833883  0.77788797     0.35050
C1102       C  0.92799701  0.44177645  0.75561195    -0.26950
C1103       C  0.91041197  0.44086991  0.73073337    -0.16190
C1104       C  0.86606305  0.43830905  0.72834837     0.36140
N1105       N  0.84643562  0.43677112  0.70337592    -0.90440
H1106       H  0.80735252  0.43076414  0.74873250     0.17250
H1107       H  0.96174117  0.44388870  0.75767646     0.17240
N1108       N  0.92118561  0.43610968  0.80305556    -0.89470
H1109       H  0.81377371  0.43725496  0.70520424     0.34620
H1110       H  0.85363903  0.40766977  0.69470904     0.39720
H1111       H  0.91142915  0.46249677  0.81380145     0.39340
H1112       H  0.95385765  0.43831613  0.80167885     0.34230
C1113       C  0.73114546  0.56910741  0.90126906    -0.27500
C1114       C  0.70070113  0.55062280  0.88507781    -0.15580
C1115       C  0.67287371  0.57667098  0.87172893     0.35050
C1116       C  0.67900720  0.62064879  0.87295171    -0.26950
C1117       C  0.71261244  0.63888893  0.88691675    -0.16190
C1118       C  0.73733663  0.61283307  0.90235511     0.36140
N1119       N  0.76997977  0.63033764  0.91834359    -0.90440
H1120       H  0.75217288  0.54923279  0.91189853     0.17250
H1121       H  0.65910505  0.64030317  0.86144877     0.17240
N1122       N  0.63958654  0.55972336  0.85590044    -0.89470
H1123       H  0.79839464  0.61703218  0.91244936     0.34620
H1124       H  0.76411049  0.62138676  0.93739027     0.39720
H1125       H  0.63767504  0.52690736  0.85694550     0.39340
H1126       H  0.64658001  0.56691287  0.83670020     0.34230
C1127       C  0.76470740  0.11244022  0.87407080    -0.27500
C1128       C  0.79898682  0.13908016  0.86863292    -0.15580
C1129       C  0.83812076  0.12023568  0.86264639     0.35050
C1130       C  0.84132713  0.07575077  0.86139530    -0.26950
C1131       C  0.80596821  0.04960482  0.86529765    -0.16190
C1132       C  0.76738605  0.06856199  0.87221038     0.36140
N1133       N  0.73033253  0.04326104  0.87676394    -0.90440
H1134       H  0.73458423  0.12580976  0.87904187     0.17250
H1135       H  0.87109527  0.06166538  0.85630441     0.17240
N1136       N  0.87490681  0.14512919  0.85764259    -0.89470
H1137       H  0.70453227  0.06203481  0.88139113     0.34620
H1138       H  0.73574123  0.02471855  0.89281366     0.39720
H1139       H  0.88013956  0.16530644  0.87354830     0.39340
H1140       H  0.86963041  0.16323753  0.84134318     0.34230
C1141       C  0.12283295  0.94792854  0.77667276    -0.27500
C1142       C  0.16677391  0.94715737  0.77345120    -0.15580
C1143       C  0.18331226  0.94240463  0.74820216     0.35050
C1144       C  0.15584406  0.93803122  0.72711512    -0.26950
C1145       C  0.11192847  0.93834084  0.73030292    -0.16190
C1146       C  0.09527441  0.94288518  0.75552889     0.36140
N1147       N  0.05068340  0.94310383  0.75968003    -0.90440
H1148       H  0.10975158  0.95201126  0.79589549     0.17250
H1149       H  0.16913015  0.93454008  0.70788541     0.17240
N1150       N  0.22788551  0.94225507  0.74387081    -0.89470
H1151       H  0.04369217  0.94890670  0.77918662     0.34620
H1152       H  0.03932315  0.91270790  0.75540260     0.39720
H1153       H  0.23939448  0.97242544  0.74860935     0.39340
H1154       H  0.23482770  0.93708177  0.72429352     0.34230
C1155       C  0.34008414  0.84590742  0.73771234    -0.27500
C1156       C  0.35567522  0.84166774  0.76281117    -0.15580
C1157       C  0.39317423  0.86322220  0.76954176     0.35050
C1158       C  0.41383376  0.88861655  0.75147273    -0.26950
C1159       C  0.39834020  0.89290740  0.72635782    -0.16190
C1160       C  0.36138149  0.87066838  0.71942443     0.36140
N1161       N  0.34622186  0.87182705  0.69350570    -0.90440
H1162       H  0.31013966  0.83156048  0.73264359     0.17250
H1163       H  0.44347265  0.90347836  0.75672585     0.17240
N1164       N  0.40872575  0.86175289  0.79544968    -0.89470
H1165       H  0.31552599  0.88298638  0.69425014     0.34620
H1166       H  0.34520055  0.84088497  0.68615942     0.39720
H1167       H  0.40968556  0.89255969  0.80302778     0.39340
H1168       H  0.43943111  0.85062766  0.79467358     0.34230
C1169       C  0.54534481  0.89477783  0.87063980    -0.27500
C1170       C  0.55962531  0.85294157  0.87214422    -0.15580
C1171       C  0.52957604  0.82006815  0.87257418     0.35050
C1172       C  0.48683034  0.82949078  0.87151648    -0.26950
C1173       C  0.47209243  0.87132815  0.87009475    -0.16190
C1174       C  0.50235337  0.90460889  0.86996844     0.36140
N1175       N  0.49150437  0.94851359  0.86984459    -0.90440
H1176       H  0.56793266  0.92057972  0.87027276     0.17250
H1177       H  0.46483400  0.80318646  0.87176003     0.17240
N1178       N  0.54124880  0.77681185  0.87475383    -0.89470
H1179       H  0.50482557  0.96289793  0.88625128     0.34620
H1180       H  0.45945167  0.95293687  0.87195304     0.39720
H1181       H  0.55955009  0.77385192  0.89131118     0.39340
H1182       H  0.55901844  0.76815800  0.85852503     0.34230
C1183       C  0.00139073  0.86096874  0.83396432    -0.27500
C1184       C  0.97709020  0.84420561  0.85395787    -0.15580
C1185       C  0.99596814  0.83176149  0.87722591     0.35050
C1186       C  0.03882405  0.83751583  0.88011007    -0.26950
C1187       C  0.06308180  0.85602986  0.86070934    -0.16190
C1188       C  0.04468762  0.86646305  0.83687899     0.36140
N1189       N  0.06861396  0.88221246  0.81540687    -0.90440
H1190       H  0.98658000  0.87039771  0.81620160     0.17250
H1191       H  0.05294777  0.82923005  0.89832321     0.17240
N1192       N  0.97280944  0.81458113  0.89867805    -0.89470
H1193       H  0.06394462  0.86135530  0.79975720     0.34620
H1194       H  0.10071352  0.88168999  0.81906327     0.39720
H1195       H  0.94103548  0.81025605  0.89477863     0.39340
H1196       H  0.97487944  0.83629613  0.91410204     0.34230
C1197       C  0.14189100  0.28803562  0.72861014    -0.27500
C1198       C  0.10034249  0.30120958  0.73165006    -0.15580
C1199       C  0.08268476  0.30451695  0.75671679     0.35050
C1200       C  0.10792170  0.29722409  0.77820622    -0.26950
C1201       C  0.15055305  0.28754445  0.77526169    -0.16190
C1202       C  0.16735592  0.28142268  0.75014497     0.36140
N1203       N  0.21053034  0.27002655  0.74654954    -0.90440
H1204       H  0.15538369  0.28559883  0.70936383     0.17250
H1205       H  0.09451232  0.30135621  0.79737061     0.17240
N1206       N  0.03956368  0.31539420  0.76111620    -0.89470
H1207       H  0.21809158  0.26775255  0.72687962     0.34620
H1208       H  0.21417484  0.23991322  0.75404754     0.39720
H1209       H  0.02306729  0.31751227  0.74383275     0.39340
H1210       H  0.03908355  0.34515413  0.77015974     0.34230
C1211       C  0.37964183  0.38122528  0.76645621    -0.27500
C1212       C  0.34081953  0.39696134  0.75887555    -0.15580
C1213       C  0.32613451  0.38649723  0.73368199     0.35050
C1214       C  0.35100204  0.36152612  0.71664015    -0.26950
C1215       C  0.38921025  0.34483120  0.72481256    -0.16190
C1216       C  0.40305291  0.35473386  0.75003045     0.36140
N1217       N  0.44179508  0.33799809  0.75881713    -0.90440
H1218       H  0.39022430  0.38657655  0.78612108     0.17250
H1219       H  0.34102858  0.35594754  0.69686696     0.17240
N1220       N  0.28591247  0.40114657  0.72556530    -0.89470
H1221       H  0.43567699  0.32057936  0.77539285     0.34620
H1222       H  0.46180695  0.36336117  0.76337864     0.39720
H1223       H  0.26295643  0.38629723  0.73680600     0.39340
H1224       H  0.28015750  0.39178942  0.70640356     0.34230
C1225       C  0.52125588  0.35122675  0.84547308    -0.27500
C1226       C  0.54122737  0.35048937  0.86928047    -0.15580
C1227       C  0.51813382  0.35178523  0.89258692     0.35050
C1228       C  0.47445713  0.35397232  0.89147356    -0.26950
C1229       C  0.45450901  0.35473433  0.86755098    -0.16190
C1230       C  0.47778117  0.35444215  0.84441457     0.36140
N1231       N  0.45729172  0.35913073  0.82006299    -0.90440
H1232       H  0.53974562  0.35081717  0.82780647     0.17250
H1233       H  0.45598041  0.35500046  0.90912447     0.17240
N1234       N  0.53912577  0.35049677  0.91708681    -0.89470
H1235       H  0.47973366  0.35959214  0.80530538     0.34620
H1236       H  0.44352898  0.38889102  0.82026212     0.39720
H1237       H  0.55374781  0.32125431  0.91817402     0.39340
H1238       H  0.51740848  0.35189019  0.93229072     0.34230
C1239       C  0.97431876  0.39331619  0.88388607    -0.27500
C1240       C  0.95636602  0.35254635  0.88178321    -0.15580
C1241       C  0.98240250  0.31725751  0.88014497     0.35050
C1242       C  0.02589575  0.32344905  0.88009899    -0.26950
C1243       C  0.04401878  0.36419349  0.88179693    -0.16190
C1244       C  0.01797193  0.39954788  0.88367205     0.36140
N1245       N  0.03570636  0.44144299  0.88475424    -0.90440
H1246       H  0.95423616  0.42060667  0.88489673     0.17250
H1247       H  0.04573218  0.29599159  0.87895770     0.17240
N1248       N  0.96468178  0.27534910  0.87875993    -0.89470
H1249       H  0.01205828  0.46390863  0.88629596     0.34620
H1250       H  0.05099744  0.44661083  0.86713907     0.39720
H1251       H  0.94879039  0.27008287  0.89616201     0.39340
H1252       H  0.98830652  0.25283189  0.87742695     0.34230
C1253       C  0.24075671  0.60000623  0.85265472    -0.27500
C1254       C  0.21112005  0.57867717  0.86790494    -0.15580
C1255       C  0.18255806  0.60325570  0.88269889     0.35050
C1256       C  0.18543481  0.64821782  0.88233311    -0.26950
C1257       C  0.21647159  0.66927012  0.86763190    -0.16190
C1258       C  0.24458109  0.64405826  0.85271509     0.36140
N1259       N  0.27838302  0.66278103  0.83816705    -0.90440
H1260       H  0.26296420  0.58208901  0.84113444     0.17250
H1261       H  0.16377002  0.66680565  0.89386423     0.17240
N1262       N  0.15120146  0.58279316  0.89823439    -0.89470
H1263       H  0.29311784  0.64043296  0.82622029     0.34620
H1264       H  0.30109492  0.67299223  0.85146565     0.39720
H1265       H  0.13090613  0.56644650  0.88567856     0.39340
H1266       H  0.13310165  0.60517482  0.90815140     0.34230
C1267       C  0.33970128  0.10302053  0.86467327    -0.27500
C1268       C  0.32435140  0.08217461  0.88650168    -0.15580
C1269       C  0.31162458  0.10619366  0.90837390     0.35050
C1270       C  0.30786709  0.14981068  0.90643838    -0.26950
C1271       C  0.31781189  0.17014034  0.88341539    -0.16190
C1272       C  0.33673139  0.14705020  0.86288784     0.36140
N1273       N  0.34921508  0.16755770  0.83946969    -0.90440
H1274       H  0.35017954  0.08473048  0.84800144     0.17250
H1275       H  0.29491354  0.16763370  0.92263379     0.17240
N1276       N  0.30022081  0.08727040  0.93239421    -0.89470
H1277       H  0.36003298  0.14553793  0.82576765     0.34620
H1278       H  0.37480416  0.18723794  0.84393911     0.39720
H1279       H  0.30692366  0.05511908  0.93236168     0.39340
H1280       H  0.26785720  0.09059843  0.93434783     0.34230
C1281       C  0.77645364  0.54960821  0.99378743    -0.27500
C1282       C  0.73926770  0.54575574  0.00843227    -0.15580
C1283       C  0.70938114  0.51505667  0.00148061     0.35050
C1284       C  0.71956710  0.48517848  0.98229188    -0.26950
C1285       C  0.75946559  0.48498844  0.97024619    -0.16190
C1286       C  0.78710019  0.51926694  0.97477046     0.36140
N1287       N  0.82679911  0.52168423  0.96156885    -0.90440
H1288       H  0.79948392  0.57346658  0.99939663     0.17250
H1289       H  0.69683336  0.46046147  0.97791317     0.17240
N1290       N  0.67025771  0.51225083  0.01535982    -0.89470
H1291       H  0.84435140  0.54757886  0.96843531     0.34620
H1292       H  0.82067022  0.52754189  0.94214325     0.39720
H1293       H  0.67671803  0.50377842  0.03434590     0.39340
H1294       H  0.65133652  0.48811659  0.00753243     0.34230
C1295       C  0.81675088  0.73595868  0.01366754    -0.27500
C1296       C  0.85137829  0.71058629  0.01987964    -0.15580
C1297       C  0.88578187  0.70995714  0.00230660     0.35050
C1298       C  0.88338605  0.73301412  0.97912887    -0.26950
C1299       C  0.84846512  0.75803936  0.97339361    -0.16190
C1300       C  0.81461745  0.75908660  0.99101325     0.36140
N1301       N  0.77670250  0.78195304  0.98642294    -0.90440
H1302       H  0.78959182  0.73739268  0.02630188     0.17250
H1303       H  0.90926996  0.73155293  0.96548853     0.17240
N1304       N  0.92356548  0.68726139  0.00716566    -0.89470
H1305       H  0.75210325  0.75993130  0.98496197     0.34620
H1306       H  0.77741001  0.79787147  0.96899876     0.39720
H1307       H  0.92299226  0.67383176  0.02537143     0.39340
H1308       H  0.94830490  0.70921592  0.00760592     0.34230
C1309       C  0.62631291  0.52712482  0.25347091    -0.27500
C1310       C  0.64745715  0.52234995  0.27693584    -0.15580
C1311       C  0.69122593  0.51393541  0.27607505     0.35050
C1312       C  0.71289212  0.51396158  0.25218473    -0.26950
C1313       C  0.69224624  0.52304695  0.22920278    -0.16190
C1314       C  0.64822601  0.52783422  0.22972783     0.36140
N1315       N  0.62623107  0.53555974  0.20614145    -0.90440
H1316       H  0.59285802  0.53262136  0.25371484     0.17250
H1317       H  0.74667614  0.51070728  0.25188330     0.17240
N1318       N  0.71415152  0.50697370  0.29942105    -0.89470
H1319       H  0.59413371  0.53889479  0.20972485     0.34620
H1320       H  0.62947542  0.50884849  0.19417191     0.39720
H1321       H  0.71829273  0.53629451  0.30868259     0.39340
H1322       H  0.74433134  0.49631213  0.29510092     0.34230
C1323       C  0.89812558  0.61931462  0.27872406    -0.27500
C1324       C  0.94138734  0.61818191  0.27363339    -0.15580
C1325       C  0.95729640  0.63713616  0.25120652     0.35050
C1326       C  0.93017439  0.65623714  0.23407368    -0.26950
C1327       C  0.88667521  0.65503379  0.23802666    -0.16190
C1328       C  0.87042431  0.63702000  0.26081640     0.36140
N1329       N  0.82589902  0.63513132  0.26509846    -0.90440
H1330       H  0.88604904  0.60667841  0.29663606     0.17250
H1331       H  0.94289822  0.66817597  0.21609901     0.17240
N1332       N  0.00133411  0.63617850  0.24557957    -0.89470
H1333       H  0.81935978  0.62154785  0.28291824     0.34620
H1334       H  0.81288181  0.61481374  0.25107199     0.39720
H1335       H  0.01206127  0.66715080  0.24312093     0.39340
H1336       H  0.00551652  0.61945392  0.22821013     0.34230
C1337       C  0.74538089  0.94296674  0.99416011    -0.27500
C1338       C  0.74788914  0.96561691  0.97127729    -0.15580
C1339       C  0.76616810  0.00676602  0.97197613     0.35050
C1340       C  0.77985340  0.02448694  0.99568004    -0.26950
C1341       C  0.77732351  0.00141845  0.01849229    -0.16190
C1342       C  0.76037543  0.96002894  0.01746483     0.36140
N1343       N  0.75841696  0.93501469  0.04026585    -0.90440
H1344       H  0.73404977  0.91055430  0.99365743     0.17250
H1345       H  0.79159918  0.05670665  0.99631776     0.17240
N1346       N  0.77206506  0.03107744  0.94906245    -0.89470
H1347       H  0.77523574  0.90738891  0.03671365     0.34620
H1348       H  0.72708064  0.92652418  0.04357697     0.39720
H1349       H  0.76044741  0.01495015  0.93286948     0.39340
H1350       H  0.80433482  0.03494876  0.94611699     0.34230
C1351       C  0.67674955  0.19834610  0.97399636    -0.27500
C1352       C  0.68245277  0.24244320  0.97532493    -0.15580
C1353       C  0.68486235  0.26238667  0.00002304     0.35050
C1354       C  0.68354903  0.23775006  0.02235208    -0.26950
C1355       C  0.68060954  0.19357096  0.02095529    -0.16190
C1356       C  0.67609807  0.17361604  0.99632579     0.36140
N1357       N  0.67381579  0.12854547  0.99282506    -0.90440
H1358       H  0.67445451  0.18250807  0.95530367     0.17250
H1359       H  0.68771916  0.25305919  0.04110112     0.17240
N1360       N  0.69053255  0.30733632  0.00255984    -0.89470
H1361       H  0.64478479  0.12113754  0.98450444     0.34620
H1362       H  0.67466597  0.11289371  0.01031235     0.39720
H1363       H  0.72087202  0.31457894  0.99612859     0.39340
H1364       H  0.68929057  0.31698504  0.02198863     0.34230
C1365       C  0.72750702  0.88224417  0.11421752    -0.27500
C1366       C  0.72927001  0.90546817  0.13756588    -0.15580
C1367       C  0.74170300  0.88449259  0.16019445     0.35050
C1368       C  0.75095344  0.84093119  0.15890409    -0.26950
C1369       C  0.74880296  0.81769911  0.13549584    -0.16190
C1370       C  0.73671780  0.83898630  0.11285782     0.36140
N1371       N  0.73293102  0.81672943  0.08847563    -0.90440
H1372       H  0.71812029  0.89779069  0.09674365     0.17250
H1373       H  0.76025294  0.82511369  0.17630118     0.17240
N1374       N  0.74516184  0.90724551  0.18439480    -0.89470
H1375       H  0.72623838  0.83744159  0.07359916     0.34620
H1376       H  0.70699833  0.79637299  0.08985515     0.39720
H1377       H  0.77010978  0.92873839  0.18267022     0.39340
H1378       H  0.75320452  0.88694968  0.19922118     0.34230
C1379       C  0.82182965  0.32587045  0.10433720    -0.27500
C1380       C  0.79321661  0.30876385  0.12224050    -0.15580
C1381       C  0.76908290  0.33693623  0.13767934     0.35050
C1382       C  0.77600620  0.38068652  0.13576973    -0.26950
C1383       C  0.80529934  0.39794576  0.11833813    -0.16190
C1384       C  0.82887000  0.36974450  0.10245486     0.36140
N1385       N  0.86147154  0.38369516  0.08515589    -0.90440
H1386       H  0.84047636  0.30474902  0.09237404     0.17250
H1387       H  0.75763744  0.40165127  0.14801130     0.17240
N1388       N  0.73661441  0.32281134  0.15503770    -0.89470
H1389       H  0.88951942  0.37031123  0.09113726     0.34620
H1390       H  0.86642416  0.41615083  0.08639316     0.39720
H1391       H  0.73129608  0.29040698  0.15335015     0.39340
H1392       H  0.70859168  0.33652334  0.14929796     0.34230
C1393       C  0.70570627  0.12881142  0.27236619    -0.27500
C1394       C  0.69194281  0.11731490  0.24750767    -0.15580
C1395       C  0.66617207  0.08041246  0.24464684     0.35050
C1396       C  0.65064857  0.05978762  0.26641345    -0.26950
C1397       C  0.65949981  0.07495327  0.29121998    -0.16190
C1398       C  0.68971576  0.10772838  0.29431338     0.36140
N1399       N  0.70102802  0.12186735  0.31988906    -0.90440
H1400       H  0.72659684  0.15576993  0.27480430     0.17250
H1401       H  0.62741083  0.03481885  0.26379256     0.17240
N1402       N  0.65397026  0.06441158  0.21964174    -0.89470
H1403       H  0.72366741  0.14590234  0.31891026     0.34620
H1404       H  0.71533325  0.09665579  0.32895796     0.39720
H1405       H  0.62122337  0.06462403  0.21859691     0.39340
H1406       H  0.66376287  0.03315011  0.21782269     0.34230
C1407       C  0.84086880  0.05042347  0.28942672    -0.27500
C1408       C  0.88463283  0.04846743  0.28654429    -0.15580
C1409       C  0.90146741  0.03702434  0.26212825     0.35050
C1410       C  0.87452897  0.03150272  0.24092201    -0.26950
C1411       C  0.83098491  0.03770039  0.24305969    -0.16190
C1412       C  0.81374259  0.04511051  0.26812791     0.36140
N1413       N  0.76969619  0.05093329  0.27264688    -0.90440
H1414       H  0.82768249  0.05909896  0.30811756     0.17250
H1415       H  0.88831539  0.02561636  0.22200212     0.17240
N1416       N  0.94574159  0.03197798  0.25789848    -0.89470
H1417       H  0.75981441  0.02830602  0.28587802     0.34620
H1418       H  0.75226931  0.04492614  0.25603664     0.39720
H1419       H  0.96260638  0.03518649  0.27507135     0.39340
H1420       H  0.95595482  0.05605236  0.24575264     0.34230
C1421       C  0.35674182  0.55795980  0.98871593    -0.27500
C1422       C  0.36033329  0.53702843  0.01234555    -0.15580
C1423       C  0.35795287  0.49221102  0.01195907     0.35050
C1424       C  0.34635120  0.47031026  0.98917542    -0.26950
C1425       C  0.33927765  0.49137297  0.96608765    -0.16190
C1426       C  0.34648741  0.53548572  0.96553649     0.36140
N1427       N  0.34062758  0.55766326  0.94189584    -0.90440
H1428       H  0.35797103  0.59212853  0.98873955     0.17250
H1429       H  0.34164714  0.43641565  0.98973401     0.17240
N1430       N  0.36465166  0.46801834  0.03480359    -0.89470
H1431       H  0.34780531  0.58969337  0.94456885     0.34620
H1432       H  0.30881702  0.55557547  0.93719653     0.39720
H1433       H  0.37570616  0.48715138  0.05000169     0.39340
H1434       H  0.38887828  0.44697956  0.03067035     0.34230
C1435       C  0.26522835  0.67968016  0.98528257    -0.27500
C1436       C  0.24238806  0.69920102  0.00561513    -0.15580
C1437       C  0.23769988  0.74319807  0.00554793     0.35050
C1438       C  0.26139513  0.76688079  0.98850758    -0.26950
C1439       C  0.28423117  0.74839413  0.96786643    -0.16190
C1440       C  0.28500670  0.70397682  0.96575335     0.36140
N1441       N  0.30581903  0.68385330  0.94426638    -0.90440
H1442       H  0.27016953  0.64594806  0.98567933     0.17730
H1443       H  0.25994604  0.80088368  0.99092560     0.17240
N1444       N  0.21326877  0.76524494  0.02489873    -0.89470
H1445       H  0.30252403  0.65110432  0.94537342     0.34620
H1446       H  0.33783422  0.69084234  0.94582396     0.39720
H1447       H  0.19581097  0.74404421  0.03598191     0.39340
H1448       H  0.19119315  0.78316386  0.01523496     0.34230
C1449       C  0.51496099  0.63122022  0.14454240    -0.27500
C1450       C  0.49818047  0.65447874  0.12427221    -0.15580
C1451       C  0.52570960  0.67114991  0.10540783     0.35050
C1452       C  0.56880906  0.66436785  0.10721001    -0.26950
C1453       C  0.58576526  0.64142415  0.12753503    -0.16190
C1454       C  0.55823928  0.62433688  0.14630139     0.36140
N1455       N  0.57299807  0.59893909  0.16687471    -0.90440
H1456       H  0.49422351  0.61789962  0.15900929     0.17250
H1457       H  0.58933890  0.67805203  0.09276524     0.17240
N1458       N  0.51117803  0.69653721  0.08475282    -0.89470
H1459       H  0.59273359  0.61730176  0.17868823     0.34620
H1460       H  0.59005425  0.57391518  0.15885258     0.39720
H1461       H  0.49431711  0.72179873  0.09264661     0.39340
H1462       H  0.49145283  0.67821585  0.07290911     0.34230
C1463       C  0.02122328  0.57702319  0.10469636    -0.27500
C1464       C  0.99895410  0.58844746  0.12721332    -0.15580
C1465       C  0.02156710  0.60385127  0.14888500     0.35050
C1466       C  0.06580621  0.60631912  0.14775325    -0.26950
C1467       C  0.08811644  0.59451456  0.12527082    -0.16190
C1468       C  0.06531548  0.57945814  0.10350760     0.36140
N1469       N  0.08682763  0.56578696  0.08038779    -0.90440
H1470       H  0.00413053  0.56515578  0.08798853     0.17250
H1471       H  0.08293991  0.61813629  0.16445742     0.17240
N1472       N  0.99967059  0.61792025  0.17174394    -0.89470
H1473       H  0.06545595  0.55675014  0.06600448     0.34620
H1474       H  0.10349620  0.53870673  0.08484902     0.39720
H1475       H  0.98143333  0.64365201  0.16671643     0.39340
H1476       H  0.02103898  0.62939075  0.18547340     0.34230
C1477       C  0.16827576  0.71857374  0.23779515    -0.27500
C1478       C  0.21017046  0.70579408  0.23716753    -0.15580
C1479       C  0.22946024  0.69447480  0.26067837     0.35050
C1480       C  0.20590005  0.69507377  0.28381968    -0.26950
C1481       C  0.16319042  0.70558723  0.28416648    -0.16190
C1482       C  0.14471573  0.71904818  0.26092461     0.36140
N1483       N  0.10176562  0.73225228  0.26065167    -0.90440
H1484       H  0.15323424  0.72648836  0.21981547     0.17250
H1485       H  0.22068315  0.68502452  0.30144179     0.17240
N1486       N  0.27204895  0.68024497  0.26175331    -0.89470
H1487       H  0.09275462  0.74020778  0.24198031     0.34620
H1488       H  0.09979348  0.75984581  0.27196115     0.39720
H1489       H  0.28683243  0.68114842  0.24374194     0.39340
H1490       H  0.27124818  0.64867466  0.26723801     0.34230
C1491       C  0.36811053  0.60259009  0.25626364    -0.27500
C1492       C  0.38901523  0.58954298  0.23361504    -0.15580
C1493       C  0.43326332  0.59138284  0.23271615     0.35050
C1494       C  0.45521933  0.60836225  0.25373174    -0.26950
C1495       C  0.43468343  0.62206707  0.27636372    -0.16190
C1496       C  0.39028722  0.61863631  0.27778115     0.36140
N1497       N  0.36661940  0.63000725  0.30054342    -0.90440
H1498       H  0.33413606  0.60267441  0.25669734     0.17250
H1499       H  0.48922582  0.60901104  0.25281337     0.17240
N1500       N  0.45683236  0.57771558  0.21031918    -0.89470
H1501       H  0.34664667  0.65448321  0.29567155     0.34620
H1502       H  0.38572168  0.64190843  0.31525544     0.39720
H1503       H  0.43733319  0.56370585  0.19637564     0.39340
H1504       H  0.47692463  0.55391492  0.21613388     0.34230
C1505       C  0.28218327  0.03761908  0.99946183    -0.27500
C1506       C  0.30027469  0.01665857  0.02015956    -0.15580
C1507       C  0.30287584  0.97199717  0.01868426     0.35050
C1508       C  0.28445128  0.94992594  0.99751886    -0.26950
C1509       C  0.26139469  0.97122982  0.97876046    -0.16190
C1510       C  0.25907895  0.01565602  0.98058783     0.36140
N1511       N  0.23023154  0.03828652  0.96485346    -0.90440
H1512       H  0.27950596  0.07169767  0.00065343     0.17250
H1513       H  0.28663566  0.91586783  0.99639204     0.17240
N1514       N  0.32155353  0.94797885  0.03877629    -0.89470
H1515       H  0.23028722  0.07034424  0.96997371     0.34620
H1516       H  0.20002916  0.02725918  0.96924083     0.39720
H1517       H  0.33527146  0.96775627  0.05274476     0.39340
H1518       H  0.34613835  0.93087297  0.03043616     0.34230
C1519       C  0.17979622  0.24083692  0.98077394    -0.27500
C1520       C  0.20481360  0.27772034  0.98268573    -0.15580
C1521       C  0.22706003  0.28629636  0.00554410     0.35050
C1522       C  0.22378843  0.25769259  0.02597659    -0.26950
C1523       C  0.19916401  0.22044308  0.02390135    -0.16190
C1524       C  0.17618915  0.21239874  0.00104245     0.36140
N1525       N  0.14810655  0.17684038  0.99773109    -0.90440
H1526       H  0.16240823  0.23399251  0.96320957     0.17250
H1527       H  0.24096268  0.26431511  0.04364484     0.17240
N1528       N  0.25361733  0.32312924  0.00770358    -0.89470
H1529       H  0.11802012  0.18860575  0.99492839     0.34620
H1530       H  0.14609527  0.15859169  0.01421269     0.39720
H1531       H  0.27791676  0.31974013  0.99419578     0.39340
H1532       H  0.26768511  0.32484195  0.02590701     0.34230
C1533       C  0.24301104  0.84463930  0.13514674    -0.27500
C1534       C  0.27492535  0.83488637  0.11712429    -0.15580
C1535       C  0.28858646  0.86666598  0.09988767     0.35050
C1536       C  0.27023200  0.90669953  0.10146773    -0.26950
C1537       C  0.24003063  0.91689254  0.12036465    -0.16190
C1538       C  0.22554007  0.88509893  0.13705457     0.36140
N1539       N  0.19462454  0.89310702  0.15682325    -0.90440
H1540       H  0.23213307  0.82074717  0.14840846     0.17250
H1541       H  0.28231046  0.93134228  0.08910803     0.17240
N1542       N  0.32263974  0.86101548  0.08180507    -0.89470
H1543       H  0.16883304  0.87336141  0.15293831     0.34620
H1544       H  0.18360820  0.92392265  0.15604062     0.39720
H1545       H  0.33697821  0.83196377  0.08362089     0.39340
H1546       H  0.34585757  0.88344943  0.08643456     0.34230
C1547       C  0.24139263  0.36181734  0.12487114    -0.27500
C1548       C  0.27866315  0.33860933  0.12470618    -0.15580
C1549       C  0.31765544  0.36042048  0.12548477     0.35050
C1550       C  0.31837142  0.40462615  0.12650775    -0.26950
C1551       C  0.28095136  0.42726876  0.12703875    -0.16190
C1552       C  0.24215365  0.40589099  0.12602832     0.36140
N1553       N  0.20366739  0.42911234  0.12644486    -0.90440
H1554       H  0.21131676  0.34556368  0.12446373     0.17250
H1555       H  0.34820256  0.42137911  0.12676589     0.17240
N1556       N  0.35679913  0.33879943  0.12460173    -0.89470
H1557       H  0.17778038  0.40854754  0.12629519     0.34620
H1558       H  0.20227025  0.44607148  0.10934303     0.39720
H1559       H  0.35718137  0.31901255  0.10820350     0.39340
H1560       H  0.35922760  0.32048726  0.14108269     0.34230
C1561       C  0.48581705  0.17185621  0.13637047    -0.27500
C1562       C  0.45901427  0.13814719  0.12924384    -0.15580
C1563       C  0.47598640  0.09707592  0.12574890     0.35050
C1564       C  0.51908223  0.09157770  0.12756960    -0.26950
C1565       C  0.54564725  0.12517293  0.13394342    -0.16190
C1566       C  0.52935155  0.16563838  0.13878579     0.36140
N1567       N  0.55700952  0.20006974  0.14572321    -0.90440
H1568       H  0.47295327  0.20299356  0.13956553     0.17250
H1569       H  0.53217528  0.06050614  0.12428173     0.17240
N1570       N  0.44958584  0.06062749  0.12094118    -0.89470
H1571       H  0.53999221  0.22772663  0.14870502     0.34620
H1572       H  0.57697407  0.20537757  0.12998339     0.39720
H1573       H  0.43196365  0.05553259  0.13773433     0.39340
H1574       H  0.46737797  0.03349000  0.11786760     0.34230
C1575       C  0.97486769  0.06839420  0.12141999    -0.27500
C1576       C  0.95347569  0.10480276  0.12923204    -0.15580
C1577       C  0.97570736  0.14002547  0.13911905     0.35050
C1578       C  0.01924335  0.13835903  0.14094792    -0.26950
C1579       C  0.04134750  0.10249584  0.13261542    -0.16190
C1580       C  0.01886182  0.06664877  0.12327423     0.36140
N1581       N  0.04051410  0.02886922  0.11571522    -0.90440
H1582       H  0.95718913  0.04121381  0.11430465     0.17250
H1583       H  0.03597859  0.16599470  0.14824052     0.17240
N1584       N  0.95389245  0.17772927  0.14683997    -0.89470
H1585       H  0.01931145  0.00579054  0.10902265     0.34620
H1586       H  0.05426270  0.01691572  0.13230750     0.39720
H1587       H  0.94023020  0.19000854  0.13031184     0.39340
H1588       H  0.97486030  0.20077383  0.15385528     0.34230
C1589       C  0.16923090  0.16425134  0.25251812    -0.27500
C1590       C  0.15373480  0.18292891  0.23036009    -0.15580
C1591       C  0.11075170  0.19436123  0.22946875     0.35050
C1592       C  0.08460485  0.18698480  0.25086469    -0.26950
C1593       C  0.10050381  0.16939039  0.27321233    -0.16190
C1594       C  0.14309157  0.15696676  0.27387346     0.36140
N1595       N  0.15974237  0.13701422  0.29629861    -0.90440
H1596       H  0.20168466  0.15461196  0.25304604     0.17250
H1597       H  0.05223308  0.19693733  0.25055582     0.17240
N1598       N  0.09380516  0.21419100  0.20709989    -0.89470
H1599       H  0.19154770  0.13035468  0.29376472     0.34620
H1600       H  0.14417273  0.10802122  0.29823358     0.39720
H1601       H  0.10812686  0.24390824  0.20568487     0.39340
H1602       H  0.06167426  0.21940259  0.20938311     0.34230
C1603       C  0.38369483  0.09532636  0.27426259    -0.27500
C1604       C  0.42518304  0.10959702  0.27009932    -0.15580
C1605       C  0.44242029  0.10517865  0.24497411     0.35050
C1606       C  0.41656503  0.09032578  0.22439056    -0.26950
C1607       C  0.37395729  0.07987366  0.22846414    -0.16190
C1608       C  0.35812927  0.08066354  0.25401485     0.36140
N1609       N  0.31529151  0.06950176  0.25992708    -0.90440
H1610       H  0.37001025  0.09703562  0.29347330     0.17250
H1611       H  0.42862797  0.09067369  0.20476410     0.17240
N1612       N  0.48508854  0.11783181  0.24009071    -0.89470
H1613       H  0.31580406  0.04460917  0.27288913     0.34620
H1614       H  0.29964735  0.05777749  0.24358397     0.39720
H1615       H  0.48721666  0.15047426  0.24314618     0.39340
H1616       H  0.49298285  0.11214120  0.22070033     0.34230
loop_ 
_geom_bond_atom_site_label_1 
_geom_bond_atom_site_label_2 
_geom_bond_distance 
_geom_bond_site_symmetry_2 
_ccdc_geom_bond_type 
N1            N2   1.308       .  A
N1            N7   1.312       .  A
N1          Mn30   2.126       .  S
N2            C9   1.338       .  A
N3            N5   1.312       .  A
N3            N4   1.322       .  A
N3          Mn19   2.198       .  S
N4           C10   1.354       .  A
N5            N6   1.315       .  A
N5          Mn30   2.174       .  S
N6           C10   1.350       .  A
N7            N8   1.328       .  A
N7          Mn19   2.246       .  S
N8            C9   1.366       .  A
C9         C1590   1.479       .  S
C10        C1548   1.477       .  S
N11          N17   1.320       .  A
N11          N12   1.307       .  A
N11         Mn41   2.163       .  S
N12          C20   1.339       .  A
N13          N14   1.314       .  A
N13          N15   1.318       .  A
N13         Mn19   2.155       .  S
N14          C21   1.340       .  A
N15          N16   1.332       .  A
N15         Mn41   2.265       .  S
N16          C21   1.362       .  A
N17          N18   1.329       .  A
N17         Mn19   2.244       .  S
N18          C20   1.361       .  A
Mn19        Cl43   2.546       .  S
C20        C1562   1.482       .  S
C21        C1607   1.483       .  S
N22          N23   1.312       .  A
N22          N28   1.312       .  A
N22         Mn30   2.133       .  S
N23          C31   1.341       .  A
N24          N26   1.312       .  A
N24          N25   1.322       .  A
N24         Mn42   2.187       .  S
N25          C32   1.355       .  A
N26          N27   1.313       .  A
N26         Mn30   2.178       .  S
N27          C32   1.349       .  A
N28          N29   1.328       .  A
N28         Mn42   2.252       .  S
N29          C31   1.364       .  A
Mn30        Cl43   2.528       .  S
C31        C1523   1.478       .  S
C32        C1579   1.479       .  S
N33          N34   1.315   1_545  A
N33          N39   1.323       .  A
N33         Mn41   2.182       .  S
N34          C44   1.344       .  A
N35          N36   1.304       .  A
N35          N37   1.313       .  A
N35         Mn42   2.123       .  S
N36          C45   1.338       .  A
N37          N38   1.334       .  A
N37         Mn41   2.251       .  S
N38          C45   1.365       .  A
N39          N40   1.329   1_545  A
N39         Mn42   2.261       .  S
N40          C44   1.360       .  A
Mn41        Cl43   2.520       .  S
Mn42        Cl43   2.541       .  S
C44        C1537   1.480       .  S
C45        C1506   1.480       .  S
N46          N47   1.317       .  A
N46          N52   1.315       .  A
N46         Mn75   2.188       .  S
N47          C54   1.347       .  A
N48          N50   1.319       .  A
N48          N49   1.324       .  A
N48         Mn64   2.228       .  S
N49          C55   1.356       .  A
N50          N51   1.321       .  A
N50         Mn75   2.212       .  S
N51          C55   1.355       .  A
N52          N53   1.321       .  A
N52         Mn64   2.197       .  S
N53          C54   1.353       .  A
C54        C1551   1.460       .  S
C55        C1467   1.496       .  S
N56          N62   1.318       .  A
N56          N57   1.330       .  A
N56         Mn86   2.249       .  S
N57          C65   1.361       .  A
N58          N59   1.329       .  A
N58          N60   1.315       .  A
N58         Mn64   2.243       .  S
N59          C66   1.363       .  A
N60          N61   1.305       .  A
N60         Mn86   2.130       .  S
N61          C66   1.335       .  A
N62          N63   1.317       .  A
N62         Mn64   2.178       .  S
N63          C65   1.345       .  A
Mn64        Cl88   2.555       .  S
C65        C1478   1.484       .  S
C66        C1492   1.460       .  S
N67          N68   1.332       .  A
N67          N73   1.316       .  A
N67         Mn75   2.234       .  S
N68          C76   1.361       .  A
N69          N71   1.317       .  A
N69          N70   1.336       .  A
N69         Mn87   2.278       .  S
N70          C77   1.369       .  A
N71          N72   1.312       .  A
N71         Mn75   2.162       .  S
N72          C77   1.341       .  A
N73          N74   1.301       .  A
N73         Mn87   2.122       .  S
N74          C76   1.332       .  A
Mn75        Cl88   2.539       .  S
C76        C1436   1.462       .  S
C77        C1422   1.495       .  S
N78          N79   1.323       .  A
N78          N84   1.313       .  A
N78         Mn86   2.218       .  S
N79          C89   1.354       .  A
N80          N81   1.325       .  A
N80          N82   1.315       .  A
N80         Mn87   2.237       .  S
N81          C90   1.358       .  A
N82          N83   1.320       .  A
N82         Mn86   2.182       .  S
N83          C90   1.352       .  A
N84          N85   1.320       .  A
N84         Mn87   2.186       .  S
N85          C89   1.353       .  A
Mn86        Cl88   2.532       .  S
Mn87        Cl88   2.538       .  S
C89        C1450   1.483       .  S
C90        C1534   1.491       .  S
N91          N92   1.314       .  A
N91          N97   1.317       .  A
N91        Mn120   2.192       .  S
N92          C99   1.346       .  A
N93          N95   1.322       .  A
N93          N94   1.323       .  A
N93        Mn109   2.234       .  S
N94         C100   1.353       .  A
N95          N96   1.325       .  A
N95        Mn120   2.236       .  S
N96         C100   1.359       .  A
N97          N98   1.323       .  A
N97        Mn109   2.198       .  S
N98          C99   1.354       .  A
C99        C1576   1.462       .  S
C100       C1380   1.496       .  S
N101        N107   1.316       .  A
N101        N102   1.329       .  A
N101       Mn131   2.249       .  S
N102        C110   1.362       .  A
N103        N104   1.333       .  A
N103        N105   1.315       .  A
N103       Mn109   2.256       .  S
N104        C111   1.367       .  A
N105        N106   1.305       .  A
N105       Mn131   2.130       .  S
N106        C111   1.334       .  A
N107        N108   1.314       .  A
N107       Mn109   2.168       .  S
N108        C110   1.345       .  A
Mn109      Cl133   2.542       .  S
C110       C1355   1.484       .  S
C111       C1341   1.476       .  S
N112        N113   1.335       .  A
N112        N118   1.315       .  A
N112       Mn120   2.248       .  S
N113        C121   1.362       .  A
N114        N116   1.313       .  A
N114        N115   1.332       .  A
N114       Mn132   2.273       .  S
N115        C122   1.366       .  A
N116        N117   1.313       .  A
N116       Mn120   2.143       .  S
N117        C122   1.344       .  A
N118        N119   1.308       .  A
N118       Mn132   2.183       .  S
N119        C121   1.334       .  A
Mn120      Cl133   2.540       .  S
C121       C1394   1.497       .  S
C122       C1411   1.493       .  S
N123        N124   1.322   1_545  A
N123        N129   1.314       .  A
N123       Mn131   2.224       .  S
N124        C134   1.356       .  A
N125        N126   1.321       .  A
N125        N127   1.310       .  A
N125       Mn132   2.198       .  S
N126        C135   1.352       .  A
N127        N128   1.316       .  A
N127       Mn131   2.158       .  S
N128        C135   1.349       .  A
N129        N130   1.325   1_545  A
N129       Mn132   2.201       .  S
N130        C134   1.357       .  A
Mn131      Cl133   2.524       .  S
Mn132      Cl133   2.513       .  S
C134       C1366   1.501       .  S
C135       C1565   1.459       .  S
N136        N137   1.308       .  A
N136        N142   1.316       .  A
N136       Mn165   2.152       .  S
N137        C144   1.340       .  A
N138        N140   1.317       .  A
N138        N139   1.306       .  A
N138       Mn154   2.133       .  S
N139        C145   1.336       .  A
N140        N141   1.328       .  A
N140       Mn165   2.232       .  S
N141        C145   1.358       .  A
N142        N143   1.338       .  A
N142       Mn154   2.287       .  S
N143        C144   1.373       .  A
C144       C1296   1.510       .  S
C145       C1282   1.458       .  S
N146        N152   1.315       .  A
N146        N147   1.319       .  A
N146       Mn176   2.177       .  S
N147        C155   1.350       .  A
N148        N149   1.320       .  A
N148        N150   1.315       .  A
N148       Mn154   2.187       .  S
N149        C156   1.353       .  A
N150        N151   1.326       .  A
N150       Mn176   2.243       .  S
N151        C156   1.359       .  A
N152        N153   1.329       .  A
N152       Mn154   2.261       .  S
N153        C155   1.363       .  A
Mn154      Cl178   2.563       .  S
C155       C1383   1.498       .  S
C156       C1464   1.493       .  S
N157        N158   1.319       .  A
N157        N163   1.316       .  A
N157       Mn165   2.191       .  S
N158        C166   1.353       .  A
N159        N161   1.315       .  A
N159        N160   1.328       .  A
N159       Mn177   2.221       .  S
N160        C167   1.361       .  A
N161        N162   1.318       .  A
N161       Mn165   2.204       .  S
N162        C167   1.350       .  A
N163        N164   1.323       .  A
N163       Mn177   2.221       .  S
N164        C166   1.356       .  A
Mn165      Cl178   2.515       .  S
C166       C1453   1.485       .  S
C167       C1369   1.502       .  S
N168        N169   1.302       .  A
N168        N174   1.316       .  A
N168       Mn176   2.126       .  S
N169        C179   1.332       .  A
N170        N171   1.313       .  A
N170        N172   1.317       .  A
N170       Mn177   2.169       .  S
N171        C180   1.343       .  A
N172        N173   1.332       .  A
N172       Mn176   2.262       .  S
N173        C180   1.366       .  A
N174        N175   1.332       .  A
N174       Mn177   2.247       .  S
N175        C179   1.365       .  A
Mn176      Cl178   2.522       .  S
Mn177      Cl178   2.570       .  S
C179       C1327   1.460       .  S
C180       C1313   1.486       .  S
N181        N182   1.308       .  A
N181        N187   1.317       .  A
N181       Mn210   2.138       .  S
N182        C189   1.337       .  A
N183        N185   1.317       .  A
N183        N184   1.326       .  A
N183       Mn199   2.235       .  S
N184        C190   1.361       .  A
N185        N186   1.309       .  A
N185       Mn210   2.153       .  S
N186        C190   1.341       .  A
N187        N188   1.332       .  A
N187       Mn199   2.268       .  S
N188        C189   1.367       .  A
C189       C1520   1.479       .  S
C190       C1243   1.475       .  S
N191        N197   1.323       .  A
N191        N192   1.315       .  A
N191       Mn221   2.203       .  S
N192        C200   1.350       .  A
N193        N194   1.323       .  A
N193        N195   1.320       .  A
N193       Mn199   2.216       .  S
N194        C201   1.354       .  A
N195        N196   1.329       .  A
N195       Mn221   2.253       .  S
N196        C201   1.358       .  A
N197        N198   1.334       .  A
N197       Mn199   2.273       .  S
N198        C200   1.364       .  A
Mn199      Cl223   2.561       .  S
C200       C1254   1.509       .  S
C201       C1425   1.495       .  S
N202        N203   1.321       .  A
N202        N208   1.307       .  A
N202       Mn210   2.185       .  S
N203        C211   1.356       .  A
N204        N206   1.308       .  A
N204        N205   1.317       .  A
N204       Mn222   2.156       .  S
N205        C212   1.349       .  A
N206        N207   1.320       .  A
N206       Mn210   2.201       .  S
N207        C212   1.357       .  A
N208        N209   1.317       .  A
N208       Mn222   2.174       .  S
N209        C211   1.351       .  A
Mn210      Cl223   2.526       .  S
C211       C1201   1.479       .  S
C212       C1271   1.474       .  S
N213        N214   1.315       .  A
N213        N219   1.314       .  A
N213       Mn221   2.156       .  S
N214        C224   1.346       .  A
N215        N216   1.307       .  A
N215        N217   1.313       .  A
N215       Mn222   2.131       .  S
N216        C225   1.332       .  A
N217        N218   1.335       .  A
N217       Mn221   2.284       .  S
N218        C225   1.373       .  A
N219        N220   1.316       .  A
N219       Mn222   2.191       .  S
N220        C224   1.349       .  A
Mn221      Cl223   2.552       .  S
Mn222      Cl223   2.516       .  S
C224       C1229   1.444       .  S
C225       C1212   1.480       .  S
N226        N227   1.338       .  A
N226        N232   1.310       .  A
N226       Mn255   2.270       .  S
N227        C234   1.372       .  A
N228        N230   1.317       .  A
N228        N229   1.336       .  A
N228       Mn244   2.283       .  S
N229        C235   1.367       .  A
N230        N231   1.312       .  A
N230       Mn255   2.165       .  S
N231        C235   1.346       .  A
N232        N233   1.296       .  A
N232       Mn244   2.112       .  S
N233        C234   1.330       .  A
C234       C1439   1.490       .  S
C235       C1257   1.513       .  S
N236        N242   1.313       .  A
N236        N237   1.318       .  A
N236       Mn266   2.186       .  S
N237        C245   1.352       .  A
N238        N239   1.330       .  A
N238        N240   1.311       .  A
N238       Mn244   2.227       .  S
N239        C246   1.359       .  A
N240        N241   1.313       .  A
N240       Mn266   2.157       .  S
N241        C246   1.346       .  A
N242        N243   1.313       .  A
N242       Mn244   2.160       .  S
N243        C245   1.347       .  A
Mn244      Cl268   2.481       .  S
C245       C1187   1.455       .  S
C246       C1509   1.491       .  S
N247        N248   1.331       .  A
N247        N253   1.313       .  A
N247       Mn255   2.262       .  S
N248        C256   1.369       .  A
N249        N251   1.320       .  A
N249        N250   1.332       .  A
N249       Mn267   2.283       .  S
N250        C257   1.367       .  A
N251        N252   1.313       .  A
N251       Mn255   2.165       .  S
N252        C257   1.345       .  A
N253        N254   1.302       .  A
N253       Mn267   2.122       .  S
N254        C256   1.330       .  A
Mn255      Cl268   2.570       .  S
C256       C1156   1.463       .  S
C257       C1173   1.503       .  S
N258        N259   1.316   1_565  A
N258        N264   1.313       .  A
N258       Mn266   2.197       .  S
N259        C269   1.352       .  A
N260        N261   1.325       .  A
N260        N262   1.311       .  A
N260       Mn267   2.237       .  S
N261        C270   1.360       .  A
N262        N263   1.320       .  A
N262       Mn266   2.168       .  S
N263        C270   1.351       .  A
N264        N265   1.321   1_565  A
N264       Mn267   2.185       .  S
N265        C269   1.354       .  A
Mn266      Cl268   2.561       .  S
Mn267      Cl268   2.490       .  S
C269       C1268   1.472       .  S
C270       C1142   1.496       .  S
N271        N272   1.324       .  A
N271        N277   1.315       .  A
N271       Mn300   2.212       .  S
N272        C279   1.358       .  A
N273        N275   1.311       .  A
N273        N274   1.312       .  A
N273       Mn289   2.142       .  S
N274        C280   1.343       .  A
N275        N276   1.316       .  A
N275       Mn300   2.174       .  S
N276        C280   1.349       .  A
N277        N278   1.320       .  A
N277       Mn289   2.215       .  S
N278        C279   1.355       .  A
C279       C1352   1.497       .  S
C280       C1226   1.442       .  S
N281        N287   1.318       .  A
N281        N282   1.315       .  A
N281       Mn311   2.173       .  S
N282        C290   1.347       .  A
N283        N284   1.310       .  A
N283        N285   1.317       .  A
N283       Mn289   2.144       .  S
N284        C291   1.338       .  A
N285        N286   1.327       .  A
N285       Mn311   2.223       .  S
N286        C291   1.356       .  A
N287        N288   1.325       .  A
N287       Mn289   2.233       .  S
N288        C290   1.355       .  A
Mn289      Cl313   2.512       .  S
C290       C1114   1.470       .  S
C291       C1285   1.483       .  S
N292        N293   1.322       .  A
N292        N298   1.318       .  A
N292       Mn300   2.206       .  S
N293        C301   1.352       .  A
N294        N296   1.312       .  A
N294        N295   1.330       .  A
N294       Mn312   2.225       .  S
N295        C302   1.361       .  A
N296        N297   1.314       .  A
N296       Mn300   2.180       .  S
N297        C302   1.350       .  A
N298        N299   1.326       .  A
N298       Mn312   2.229       .  S
N299        C301   1.357       .  A
Mn300      Cl313   2.540       .  S
C301       C1089   1.497       .  S
C302       C1128   1.499       .  S
N303        N304   1.313       .  A
N303        N309   1.322       .  A
N303       Mn311   2.175       .  S
N304        C314   1.344       .  A
N305        N306   1.316       .  A
N305        N307   1.315       .  A
N305       Mn312   2.175       .  S
N306        C315   1.345       .  A
N307        N308   1.326       .  A
N307       Mn311   2.217       .  S
N308        C315   1.356       .  A
N309        N310   1.323       .  A
N309       Mn312   2.234       .  S
N310        C314   1.358       .  A
Mn311      Cl313   2.540       .  S
Mn312      Cl313   2.539       .  S
C314       C1240   1.472       .  S
C315       C1100   1.472       .  S
N316        N317   1.332       .  A
N316        N322   1.318       .  A
N316       Mn345   2.272       .  S
N317        C324   1.365       .  A
N318        N320   1.318       .  A
N318        N319   1.332       .  A
N318       Mn334   2.255       .  S
N319        C325   1.362   1_565  A
N320        N321   1.313       .  A
N320       Mn345   2.174       .  S
N321        C325   1.344   1_565  A
N322        N323   1.307       .  A
N322       Mn334   2.124       .  S
N323        C324   1.334       .  A
C324       C1338   1.468       .  S
C325       C1131   1.493       .  S
N326        N332   1.313       .  A
N326        N327   1.317       .  A
N326       Mn356   2.187       .  S
N327        C335   1.350       .  A
N328        N329   1.327       .  A
N328        N330   1.315       .  A
N328       Mn334   2.256       .  S
N329        C336   1.362       .  A
N330        N331   1.320       .  A
N330       Mn356   2.173       .  S
N331        C336   1.348       .  A
N332        N333   1.313       .  A
N332       Mn334   2.163       .  S
N333        C335   1.347       .  A
Mn334      Cl358   2.533       .  S
C335       C1184   1.446       .  S
C336       C1299   1.487       .  S
N337        N338   1.331       .  A
N337        N343   1.315       .  A
N337       Mn345   2.250       .  S
N338        C346   1.363       .  A
N339        N341   1.322       .  A
N339        N340   1.328       .  A
N339       Mn357   2.260       .  S
N340        C347   1.361       .  A
N341        N342   1.318       .  A
N341       Mn345   2.183       .  S
N342        C347   1.346       .  A
N343        N344   1.309       .  A
N343       Mn357   2.144       .  S
N344        C346   1.339       .  A
Mn345      Cl358   2.544       .  S
C346       C1058   1.469       .  S
C347       C1170   1.495       .  S
N348        N349   1.317       .  A
N348        N354   1.315       .  A
N348       Mn356   2.192       .  S
N349        C359   1.352       .  A
N350        N351   1.332       .  A
N350        N352   1.313       .  A
N350       Mn357   2.251       .  S
N351        C360   1.365       .  A
N352        N353   1.313       .  A
N352       Mn356   2.158       .  S
N353        C360   1.345       .  A
N354        N355   1.322       .  A
N354       Mn357   2.208       .  S
N355        C359   1.356       .  A
Mn356      Cl358   2.550       .  S
Mn357      Cl358   2.532       .  S
C359       C1117   1.484       .  S
C360       C1072   1.496       .  S
N361        N362   1.315       .  A
N361        N367   1.314       .  A
N361       Mn390   2.178       .  S
N362        C369   1.348       .  A
N363        N365   1.316       .  A
N363        N364   1.319       .  A
N363       Mn379   2.195       .  S
N364        C370   1.350       .  A
N365        N366   1.319       .  A
N365       Mn390   2.204   1_455  S
N366        C370   1.353       .  A
N367        N368   1.327       .  A
N367       Mn379   2.230   1_655  S
N368        C369   1.361       .  A
C369       C1103   1.492       .  S
C370       C1002   1.464       .  S
N371        N377   1.316       .  A
N371        N372   1.312       .  A
N371       Mn401   2.179       .  S
N372        C380   1.347       .  A
N373        N374   1.318       .  A
N373        N375   1.315       .  A
N373       Mn379   2.189       .  S
N374        C381   1.351       .  A
N375        N376   1.320       .  A
N375       Mn401   2.203       .  S
N376        C381   1.352       .  A
N377        N378   1.329       .  A
N377       Mn379   2.232       .  S
N378        C380   1.360       .  A
Mn379      Cl403   2.559       .  S
C380       C1047   1.487       .  S
C381       C1198   1.470       .  S
N382        N383   1.318       .  A
N382        N388   1.314       .  A
N382       Mn390   2.186       .  S
N383        C391   1.352       .  A
N384        N386   1.315       .  A
N384        N385   1.317       .  A
N384       Mn402   2.173       .  S
N385        C392   1.347       .  A
N386        N387   1.318       .  A
N386       Mn390   2.205       .  S
N387        C392   1.353       .  A
N388        N389   1.323       .  A
N388       Mn402   2.218       .  S
N389        C391   1.357       .  A
Mn390      Cl403   2.531   1_655  S
C391        C974   1.489       .  S
C392       C1030   1.458       .  S
N393        N394   1.314       .  A
N393        N399   1.314   1_455  A
N393       Mn401   2.177       .  S
N394        C404   1.350   1_455  A
N395        N396   1.315       .  A
N395        N397   1.315       .  A
N395       Mn402   2.179   1_455  S
N396        C405   1.348       .  A
N397        N398   1.321       .  A
N397       Mn401   2.203       .  S
N398        C405   1.352       .  A
N399        N400   1.325       .  A
N399       Mn402   2.218       .  S
N400        C404   1.358       .  A
Mn401      Cl403   2.520       .  S
Mn402      Cl403   2.552   1_655  S
C404       C1016   1.485       .  S
C405        C991   1.460       .  S
N406        N407   1.327       .  A
N406        N412   1.318       .  A
N406       Mn435   2.231       .  S
N407        C414   1.355       .  A
N408        N410   1.321       .  A
N408        N409   1.323       .  A
N408       Mn424   2.231       .  S
N409        C415   1.357       .  A
N410        N411   1.311       .  A
N410       Mn435   2.183       .  S
N411        C415   1.347       .  A
N412        N413   1.320       .  A
N412       Mn424   2.189       .  S
N413        C414   1.349       .  A
C414       C1075   1.483       .  S
C415        C946   1.478       .  S
N416        N422   1.312   1_455  A
N416        N417   1.317   1_565  A
N416       Mn446   2.183       .  S
N417        C425   1.349   1_455  A
N418        N419   1.329       .  A
N418        N420   1.318       .  A
N418       Mn424   2.256   1_455  S
N419        C426   1.364       .  A
N420        N421   1.315       .  A
N420       Mn446   2.183       .  S
N421        C426   1.349       .  A
N422        N423   1.323   1_565  A
N422       Mn424   2.198       .  S
N423        C425   1.353       .  A
Mn424      Cl448   2.538   1_655  S
C425       C1019   1.468       .  S
C426       C1145   1.495       .  S
N427        N428   1.333       .  A
N427        N433   1.312   1_655  A
N427       Mn435   2.252       .  S
N428        C436   1.365       .  A
N429        N431   1.318       .  A
N429        N430   1.326       .  A
N429       Mn447   2.244       .  S
N430        C437   1.361       .  A
N431        N432   1.310       .  A
N431       Mn435   2.161   1_455  S
N432        C437   1.346       .  A
N433        N434   1.311       .  A
N433       Mn447   2.142       .  S
N434        C436   1.337   1_455  A
Mn435      Cl448   2.542   1_655  S
C436        C935   1.483       .  S
C437       C1005   1.476       .  S
N438        N439   1.320       .  A
N438        N444   1.308       .  A
N438       Mn446   2.197       .  S
N439        C449   1.356       .  A
N440        N441   1.327       .  A
N440        N442   1.317       .  A
N440       Mn447   2.221       .  S
N441        C450   1.355       .  A
N442        N443   1.320       .  A
N442       Mn446   2.194       .  S
N443        C450   1.350       .  A
N444        N445   1.320       .  A
N444       Mn447   2.173       .  S
N445        C449   1.352       .  A
Mn446      Cl448   2.546       .  S
Mn447      Cl448   2.528       .  S
C449        C960   1.488       .  S
C450        C918   1.500       .  S
N451        N452   1.335       .  A
N451        N457   1.313       .  A
N451       Mn480   2.264       .  S
N452        C459   1.365       .  A
N453        N455   1.318       .  A
N453        N454   1.328       .  A
N453       Mn469   2.256       .  S
N454        C460   1.359       .  A
N455        N456   1.313       .  A
N455       Mn480   2.166       .  S
N456        C460   1.349       .  A
N457        N458   1.306       .  A
N457       Mn469   2.129       .  S
N458        C459   1.332       .  A
C459       C1215   1.485       .  S
C460       C1044   1.484       .  S
N461        N467   1.308       .  A
N461        N462   1.315       .  A
N461       Mn491   2.173       .  S
N462        C470   1.353       .  A
N463        N464   1.325       .  A
N463        N465   1.311       .  A
N463       Mn469   2.217       .  S
N464        C471   1.358       .  A
N465        N466   1.322       .  A
N465       Mn491   2.193       .  S
N466        C471   1.354       .  A
N467        N468   1.315       .  A
N467       Mn469   2.145       .  S
N468        C470   1.346       .  A
Mn469      Cl493   2.507       .  S
C470        C890   1.458       .  S
C471       C1086   1.500       .  S
N472        N473   1.331       .  A
N472        N478   1.320       .  A
N472       Mn480   2.253       .  S
N473        C481   1.360       .  A
N474        N476   1.322       .  A
N474        N475   1.323       .  A
N474       Mn492   2.227       .  S
N475        C482   1.355       .  A
N476        N477   1.315       .  A
N476       Mn480   2.208       .  S
N477        C482   1.352       .  A
N478        N479   1.318       .  A
N478       Mn492   2.188       .  S
N479        C481   1.347       .  A
Mn480      Cl493   2.547       .  S
C481        C879   1.491       .  S
C482        C904   1.480       .  S
N483        N484   1.311       .  A
N483        N489   1.311       .  A
N483       Mn491   2.156       .  S
N484        C494   1.345       .  A
N485        N486   1.328       .  A
N485        N487   1.318       .  A
N485       Mn492   2.250       .  S
N486        C495   1.361       .  A
N487        N488   1.318       .  A
N487       Mn491   2.189       .  S
N488        C495   1.347       .  A
N489        N490   1.323       .  A
N489       Mn492   2.199       .  S
N490        C494   1.355       .  A
Mn491      Cl493   2.542       .  S
Mn492      Cl493   2.528       .  S
C494       C1033   1.457       .  S
C495        C862   1.481       .  S
N496        N497   1.320       .  A
N496        N502   1.315       .  A
N496       Mn525   2.182       .  S
N497        C504   1.351       .  A
N498        N500   1.309       .  A
N498        N499   1.317       .  A
N498       Mn514   2.152       .  S
N499        C505   1.349       .  A
N500        N501   1.314       .  A
N500       Mn525   2.180       .  S
N501        C505   1.351       .  A
N502        N503   1.324       .  A
N502       Mn514   2.215       .  S
N503        C504   1.353       .  A
C504       C1061   1.493       .  S
C505        C893   1.464       .  S
N506        N512   1.320       .  A
N506        N507   1.312       .  A
N506       Mn536   2.168       .  S
N507        C515   1.345       .  A
N508        N509   1.303       .  A
N508        N510   1.311       .  A
N508       Mn514   2.112       .  S
N509        C516   1.329       .  A
N510        N511   1.333       .  A
N510       Mn536   2.256       .  S
N511        C516   1.368       .  A
N512        N513   1.328       .  A
N512       Mn514   2.257       .  S
N513        C515   1.360       .  A
Mn514      Cl538   2.482       .  S
C515        C963   1.477       .  S
C516       C1159   1.467       .  S
N517        N518   1.320       .  A
N517        N523   1.315       .  A
N517       Mn525   2.188       .  S
N518        C526   1.353       .  A
N519        N521   1.309       .  A
N519        N520   1.319       .  A
N519       Mn537   2.165       .  S
N520        C527   1.350       .  A
N521        N522   1.315       .  A
N521       Mn525   2.183       .  S
N522        C527   1.351       .  A
N523        N524   1.323       .  A
N523       Mn537   2.214       .  S
N524        C526   1.352       .  A
Mn525      Cl538   2.548       .  S
C526        C848   1.495       .  S
C527        C949   1.460       .  S
N528        N529   1.311   1_565  A
N528        N534   1.320       .  A
N528       Mn536   2.168       .  S
N529        C539   1.345       .  A
N530        N531   1.304       .  A
N530        N532   1.312       .  A
N530       Mn537   2.122       .  S
N531        C540   1.331       .  A
N532        N533   1.332       .  A
N532       Mn536   2.251       .  S
N533        C540   1.366       .  A
N534        N535   1.327       .  A
N534       Mn537   2.245       .  S
N535        C539   1.359   1_565  A
Mn536      Cl538   2.563       .  S
Mn537      Cl538   2.486       .  S
C539        C907   1.479       .  S
C540        C834   1.466       .  S
N541        N542   1.307       .  A
N541        N547   1.315       .  A
N541       Mn570   2.134       .  S
N542        C549   1.337       .  A
N543        N545   1.317   1_655  A
N543        N544   1.326       .  A
N543       Mn559   2.229       .  S
N544        C550   1.359   1_655  A
N545        N546   1.310       .  A
N545       Mn570   2.152       .  S
N546        C550   1.340       .  A
N547        N548   1.329       .  A
N547       Mn559   2.251   1_455  S
N548        C549   1.365       .  A
C549       C1593   1.474       .  S
C550        C823   1.465       .  S
N551        N557   1.323       .  A
N551        N552   1.318       .  A
N551       Mn581   2.211       .  S
N552        C560   1.351       .  A
N553        N554   1.322       .  A
N553        N555   1.318       .  A
N553       Mn559   2.210       .  S
N554        C561   1.353       .  A
N555        N556   1.326       .  A
N555       Mn581   2.231       .  S
N556        C561   1.355       .  A
N557        N558   1.329       .  A
N557       Mn559   2.258       .  S
N558        C560   1.361       .  A
Mn559      Cl583   2.556   1_655  S
C560        C778   1.499       .  S
C561       C1408   1.486       .  S
N562        N563   1.317       .  A
N562        N568   1.308       .  A
N562       Mn570   2.171       .  S
N563        C571   1.353       .  A
N564        N566   1.308       .  A
N564        N565   1.321       .  A
N564       Mn582   2.174       .  S
N565        C572   1.351       .  A
N566        N567   1.317       .  A
N566       Mn570   2.186       .  S
N567        C572   1.353       .  A
N568        N569   1.318       .  A
N568       Mn582   2.185       .  S
N569        C571   1.354       .  A
Mn570      Cl583   2.525       .  S
C571        C988   1.478       .  S
C572        C795   1.466       .  S
N573        N574   1.315   1_545  A
N573        N579   1.314   1_655  A
N573       Mn581   2.175       .  S
N574        C584   1.352   1_655  A
N575        N576   1.309   1_655  A
N575        N577   1.317       .  A
N575       Mn582   2.149   1_655  S
N576        C585   1.337   1_455  A
N577        N578   1.332       .  A
N577       Mn581   2.253       .  S
N578        C585   1.364       .  A
N579        N580   1.312   1_545  A
N579       Mn582   2.167       .  S
N580        C584   1.346       .  A
Mn581      Cl583   2.550   1_655  S
Mn582      Cl583   2.520       .  S
C584        C806   1.457       .  S
C585        C921   1.475       .  S
N586        N587   1.326       .  A
N586        N592   1.316       .  A
N586       Mn615   2.217       .  S
N587        C594   1.360       .  A
N588        N590   1.310       .  A
N588        N589   1.309       .  A
N588       Mn604   2.134       .  S
N589        C595   1.344       .  A
N590        N591   1.318       .  A
N590       Mn615   2.187       .  S
N591        C595   1.353       .  A
N592        N593   1.320       .  A
N592       Mn604   2.222       .  S
N593        C594   1.354       .  A
C594       C1481   1.498       .  S
C595        C809   1.454       .  S
N596        N602   1.316       .  A
N596        N597   1.315       .  A
N596       Mn626   2.165       .  S
N597        C605   1.346       .  A
N598        N599   1.306   1_455  A
N598        N600   1.315   1_455  A
N598       Mn604   2.130       .  S
N599        C606   1.335       .  A
N600        N601   1.329       .  A
N600       Mn626   2.231       .  S
N601        C606   1.360       .  A
N602        N603   1.329       .  A
N602       Mn604   2.252   1_655  S
N603        C605   1.360       .  A
Mn604      Cl628   2.501       .  S
C605        C753   1.481       .  S
C606       C1324   1.468       .  S
N607        N608   1.323       .  A
N607        N613   1.318       .  A
N607       Mn615   2.210       .  S
N608        C616   1.353       .  A
N609        N611   1.314       .  A
N609        N610   1.329       .  A
N609       Mn627   2.233       .  S
N610        C617   1.361       .  A
N611        N612   1.320       .  A
N611       Mn615   2.204       .  S
N612        C617   1.354       .  A
N613        N614   1.326       .  A
N613       Mn627   2.218       .  S
N614        C616   1.353       .  A
Mn615      Cl628   2.554       .  S
C616        C932   1.497       .  S
C617        C767   1.501       .  S
N618        N619   1.313       .  A
N618        N624   1.323       .  A
N618       Mn626   2.181   1_455  S
N619        C629   1.342       .  A
N620        N621   1.313       .  A
N620        N622   1.314   1_455  A
N620       Mn627   2.167       .  S
N621        C630   1.343   1_455  A
N622        N623   1.327       .  A
N622       Mn626   2.222       .  S
N623        C630   1.358       .  A
N624        N625   1.323       .  A
N624       Mn627   2.226       .  S
N625        C629   1.356       .  A
Mn626      Cl628   2.548   1_655  S
Mn627      Cl628   2.532       .  S
C629        C820   1.467       .  S
C630        C977   1.469       .  S
N631        N632   1.332       .  A
N631        N637   1.317       .  A
N631       Mn660   2.255       .  S
N632        C639   1.361       .  A
N633        N635   1.321       .  A
N633        N634   1.328       .  A
N633       Mn649   2.254       .  S
N634        C640   1.359       .  A
N635        N636   1.320       .  A
N635       Mn660   2.200       .  S
N636        C640   1.353       .  A
N637        N638   1.309       .  A
N637       Mn649   2.136       .  S
N638        C639   1.336       .  A
C639       C1397   1.470       .  S
C640        C781   1.501       .  S
N641        N647   1.310       .  A
N641        N642   1.318       .  A
N641       Mn671   2.171       .  S
N642        C650   1.353       .  A
N643        N644   1.334       .  A
N643        N645   1.315       .  A
N643       Mn649   2.256       .  S
N644        C651   1.365       .  A
N645        N646   1.314       .  A
N645       Mn671   2.168       .  S
N646        C651   1.345       .  A
N647        N648   1.315       .  A
N647       Mn649   2.173       .  S
N648        C650   1.349       .  A
Mn649      Cl673   2.507       .  S
C650        C739   1.472       .  S
C651       C1604   1.501       .  S
N652        N653   1.334       .  A
N652        N658   1.312       .  A
N652       Mn660   2.267       .  S
N653        C661   1.371       .  A
N654        N656   1.321       .  A
N654        N655   1.333   1_545  A
N654       Mn672   2.287       .  S
N655        C662   1.368       .  A
N656        N657   1.313   1_545  A
N656       Mn660   2.168       .  S
N657        C662   1.342       .  A
N658        N659   1.302       .  A
N658       Mn672   2.120       .  S
N659        C661   1.330       .  A
Mn660      Cl673   2.566       .  S
C661        C837   1.469       .  S
C662        C722   1.496       .  S
N663        N664   1.311       .  A
N663        N669   1.314       .  A
N663       Mn671   2.181       .  S
N664        C674   1.345       .  A
N665        N666   1.323       .  A
N665        N667   1.313       .  A
N665       Mn672   2.224       .  S
N666        C675   1.355       .  A
N667        N668   1.326       .  A
N667       Mn671   2.205       .  S
N668        C675   1.356       .  A
N669        N670   1.326       .  A
N669       Mn672   2.201       .  S
N670        C674   1.357       .  A
Mn671      Cl673   2.547       .  S
Mn672      Cl673   2.515       .  S
C674        C792   1.471       .  S
C675        C876   1.494       .  S
N676        N677   1.329       .  A
N676        N682   1.317       .  A
N676       Mn705   2.250       .  S
N677        C684   1.363       .  A
N678        N680   1.319       .  A
N678        N679   1.332       .  A
N678       Mn694   2.267       .  S
N679        C685   1.363       .  A
N680        N681   1.317       .  A
N680       Mn705   2.181       .  S
N681        C685   1.346       .  A
N682        N683   1.306       .  A
N682       Mn694   2.130       .  S
N683        C684   1.336       .  A
C684       C1495   1.469       .  S
C685        C764   1.492       .  S
N686        N692   1.313       .  A
N686        N687   1.319       .  A
N686       Mn716   2.195       .  S
N687        C695   1.353       .  A
N688        N689   1.329       .  A
N688        N690   1.314       .  A
N688       Mn694   2.261       .  S
N689        C696   1.365       .  A
N690        N691   1.317       .  A
N690       Mn716   2.167       .  S
N691        C696   1.348       .  A
N692        N693   1.314       .  A
N692       Mn694   2.167       .  S
N693        C695   1.349       .  A
Mn694      Cl718   2.526       .  S
C695        C736   1.463       .  S
C696       C1310   1.501       .  S
N697        N698   1.331       .  A
N697        N703   1.315       .  A
N697       Mn705   2.240       .  S
N698        C706   1.362       .  A
N699        N701   1.323       .  A
N699        N700   1.330       .  A
N699       Mn717   2.263       .  S
N700        C707   1.361       .  A
N701        N702   1.317       .  A
N701       Mn705   2.181       .  S
N702        C707   1.343       .  A
N703        N704   1.305       .  A
N703       Mn717   2.134       .  S
N704        C706   1.336       .  A
Mn705      Cl718   2.557       .  S
C706        C851   1.463       .  S
C707        C725   1.483       .  S
N708        N709   1.318       .  A
N708        N714   1.315       .  A
N708       Mn716   2.200       .  S
N709        C719   1.353       .  A
N710        N711   1.331       .  A
N710        N712   1.313       .  A
N710       Mn717   2.255       .  S
N711        C720   1.363       .  A
N712        N713   1.315       .  A
N712       Mn716   2.157       .  S
N713        C720   1.344       .  A
N714        N715   1.325       .  A
N714       Mn717   2.215       .  S
N715        C719   1.357       .  A
Mn716      Cl718   2.559       .  S
Mn717      Cl718   2.524       .  S
C719        C750   1.491       .  S
C720        C865   1.486       .  S
C721        C722   1.413       .  A
C721        C726   1.409       .  A
C721        H728   1.083       .  S
C722        C723   1.412       .  A
C723        C724   1.414       .  A
C723        N730   1.436       .  S
C724        C725   1.409       .  A
C724        H729   1.084       .  S
C725        C726   1.403       .  A
C726        N727   1.438       .  S
N727        H731   1.046       .  S
N727        H732   1.046       .  S
N730        H733   1.045       .  S
N730        H734   1.046       .  S
C735        C736   1.399       .  A
C735        C740   1.399       .  A
C735        H742   1.084       .  S
C736        C737   1.407       .  A
C737        C738   1.399       .  A
C737        N744   1.438       .  S
C738        C739   1.403       .  A
C738        H743   1.083       .  S
C739        C740   1.415       .  A
C740        N741   1.438       .  S
N741        H745   1.046       .  S
N741        H746   1.045       .  S
N744        H747   1.046       .  S
N744        H748   1.046       .  S
C749        C750   1.409       .  A
C749        C754   1.411       .  A
C749        H756   1.083       .  S
C750        C751   1.410       .  A
C751        C752   1.400       .  A
C751        N758   1.433       .  S
C752        C753   1.403       .  A
C752        H757   1.084       .  S
C753        C754   1.416       .  A
C754        N755   1.437       .  S
N755        H759   1.046       .  S
N755        H760   1.044       .  S
N758        H761   1.046       .  S
N758        H762   1.043       .  S
C763        C764   1.404       .  A
C763        C768   1.405       .  A
C763        H770   1.083       .  S
C764        C765   1.418       .  A
C765        C766   1.417       .  A
C765        N772   1.437       .  S
C766        C767   1.410       .  A
C766        H771   1.083       .  S
C767        C768   1.413       .  A
C768        N769   1.433       .  S
N769        H773   1.046       .  S
N769        H774   1.046       .  S
N772        H775   1.044       .  S
N772        H776   1.045       .  S
C777        C778   1.409       .  A
C777        C782   1.420       .  A
C777        H784   1.083       .  S
C778        C779   1.412       .  A
C779        C780   1.404       .  A
C779        N786   1.433       .  S
C780        C781   1.405       .  A
C780        H785   1.084       .  S
C781        C782   1.418       .  A
C782        N783   1.437       .  S
N783        H787   1.046       .  S
N783        H788   1.045       .  S
N786        H789   1.046       .  S
N786        H790   1.046       .  S
C791        C792   1.403       .  A
C791        C796   1.413       .  A
C791        H798   1.083       .  S
C792        C793   1.413       .  A
C793        C794   1.392       .  A
C793        N800   1.440       .  S
C794        C795   1.396       .  A
C794        H799   1.084       .  S
C795        C796   1.411       .  A
C796        N797   1.436       .  S
N797        H801   1.046   1_545  S
N797        H802   1.046       .  S
N800        H803   1.046       .  S
N800        H804   1.046       .  S
C805        C806   1.400   1_655  A
C805        C810   1.393       .  A
C805        H812   1.083       .  S
C806        C807   1.411       .  A
C807        C808   1.396       .  A
C807        N814   1.439       .  S
C808        C809   1.399       .  A
C808        H813   1.084       .  S
C809        C810   1.408   1_455  A
C810        N811   1.439       .  S
N811        H815   1.046       .  S
N811        H816   1.046       .  S
N814        H817   1.046       .  S
N814        H818   1.046       .  S
C819        C820   1.401       .  A
C819        C824   1.398       .  A
C819        H826   1.085       .  S
C820        C821   1.409       .  A
C821        C822   1.402       .  A
C821        N828   1.438       .  S
C822        C823   1.404       .  A
C822        H827   1.085       .  S
C823        C824   1.418       .  A
C824        N825   1.439       .  S
N825        H829   1.046   1_455  S
N825        H830   1.040   1_455  S
N828        H831   1.045       .  S
N828        H832   1.046       .  S
C833        C834   1.407   1_545  A
C833        C838   1.407       .  A
C833        H840   1.085       .  S
C834        C835   1.407       .  A
C835        C836   1.405       .  A
C835        N842   1.438       .  S
C836        C837   1.409   1_565  A
C836        H841   1.085       .  S
C837        C838   1.415       .  A
C838        N839   1.437       .  S
N839        H843   1.045       .  S
N839        H844   1.045       .  S
N842        H845   1.041       .  S
N842        H846   1.045       .  S
C847        C848   1.403       .  A
C847        C852   1.403       .  A
C847        H854   1.076       .  S
C848        C849   1.417       .  A
C849        C850   1.412       .  A
C849        N856   1.435       .  S
C850        C851   1.403       .  A
C850        H855   1.084       .  S
C851        C852   1.407       .  A
C852        N853   1.441       .  S
N853        H857   1.041       .  S
N853        H858   1.044       .  S
N856        H859   1.044       .  S
N856        H860   1.046       .  S
C861        C862   1.401       .  A
C861        C866   1.408       .  A
C861        H868   1.084       .  S
C862        C863   1.420       .  A
C863        C864   1.410       .  A
C863        N870   1.439       .  S
C864        C865   1.403       .  A
C864        H869   1.084       .  S
C865        C866   1.413       .  A
C866        N867   1.438       .  S
N867        H871   1.046       .  S
N867        H872   1.046       .  S
N870        H873   1.044       .  S
N870        H874   1.046       .  S
C875        C876   1.409       .  A
C875        C880   1.419       .  A
C875        H882   1.083       .  S
C876        C877   1.414       .  A
C877        C878   1.407       .  A
C877        N884   1.438       .  S
C878        C879   1.405       .  A
C878        H883   1.084       .  S
C879        C880   1.411       .  A
C880        N881   1.436       .  S
N881        H885   1.046       .  S
N881        H886   1.045       .  S
N884        H887   1.045       .  S
N884        H888   1.046       .  S
C889        C890   1.396       .  A
C889        C894   1.384       .  A
C889        H896   1.085       .  S
C890        C891   1.412       .  A
C891        C892   1.400       .  A
C891        N898   1.438       .  S
C892        C893   1.402       .  A
C892        H897   1.084       .  S
C893        C894   1.409       .  A
C894        N895   1.425       .  S
N895        H899   1.043       .  S
N895        H900   1.044       .  S
N898        H901   1.046       .  S
N898        H902   1.046       .  S
C903        C904   1.400       .  A
C903        C908   1.394       .  A
C903        H910   1.084       .  S
C904        C905   1.420       .  A
C905        C906   1.408       .  A
C905        N912   1.437       .  S
C906        C907   1.404       .  A
C906        H911   1.084       .  S
C907        C908   1.415       .  A
C908        N909   1.439       .  S
N909        H913   1.046       .  S
N909        H914   1.045       .  S
N912        H915   1.042       .  S
N912        H916   1.045       .  S
C917        C918   1.408   1_655  A
C917        C922   1.413       .  A
C917        H924   1.083   1_655  S
C918        C919   1.419   1_465  A
C919        C920   1.406       .  A
C919        N926   1.437   1_655  S
C920        C921   1.400       .  A
C920        H925   1.084       .  S
C921        C922   1.413   1_545  A
C922        N923   1.439       .  S
N923        H927   1.046       .  S
N923        H928   1.046       .  S
N926        H929   1.045   1_455  S
N926        H930   1.046   1_455  S
C931        C932   1.408       .  A
C931        C936   1.410   1_455  A
C931        H938   1.084       .  S
C932        C933   1.421       .  A
C933        C934   1.411       .  A
C933        N940   1.438       .  S
C934        C935   1.407   1_455  A
C934        H939   1.084       .  S
C935        C936   1.411       .  A
C936        N937   1.439       .  S
N937        H941   1.046       .  S
N937        H942   1.045       .  S
N940        H943   1.041       .  S
N940        H944   1.045       .  S
C945        C946   1.407       .  A
C945        C950   1.405       .  A
C945        H952   1.084       .  S
C946        C947   1.414       .  A
C947        C948   1.389       .  A
C947        N954   1.433       .  S
C948        C949   1.395       .  A
C948        H953   1.085       .  S
C949        C950   1.413       .  A
C950        N951   1.438       .  S
N951        H955   1.046       .  S
N951        H956   1.043       .  S
N954        H957   1.046       .  S
N954        H958   1.046       .  S
C959        C960   1.412       .  A
C959        C964   1.408       .  A
C959        H966   1.084       .  S
C960        C961   1.413       .  A
C961        C962   1.399       .  A
C961        N968   1.438       .  S
C962        C963   1.403       .  A
C962        H967   1.084       .  S
C963        C964   1.412       .  A
C964        N965   1.437       .  S
N965        H969   1.046       .  S
N965        H970   1.043       .  S
N968        H971   1.045       .  S
N968        H972   1.046       .  S
C973        C974   1.407       .  A
C973        C978   1.403       .  A
C973        H980   1.083       .  S
C974        C975   1.419       .  A
C975        C976   1.403       .  A
C975        N982   1.432       .  S
C976        C977   1.401       .  A
C976        H981   1.084       .  S
C977        C978   1.406       .  A
C978        N979   1.438       .  S
N979        H983   1.045       .  S
N979        H984   1.045       .  S
N982        H985   1.046       .  S
N982        H986   1.044       .  S
C987        C988   1.407       .  A
C987        C992   1.399       .  A
C987        H994   1.084       .  S
C988        C989   1.414       .  A
C989        C990   1.400       .  A
C989        N996   1.439       .  S
C990        C991   1.400       .  A
C990        H995   1.085       .  S
C991        C992   1.409       .  A
C992        N993   1.438       .  S
N993        H997   1.046       .  S
N993        H998   1.044       .  S
N996        H999   1.046       .  S
N996       H1000   1.046       .  S
C1001      C1002   1.403       .  A
C1001      C1006   1.410       .  A
C1001      H1008   1.084       .  S
C1002      C1003   1.412       .  A
C1003      C1004   1.392       .  A
C1003      N1010   1.440       .  S
C1004      C1005   1.404       .  A
C1004      H1009   1.085       .  S
C1005      C1006   1.411       .  A
C1006      N1007   1.436       .  S
N1007      H1011   1.046       .  S
N1007      H1012   1.045       .  S
N1010      H1013   1.043       .  S
N1010      H1014   1.046   1_455  S
C1015      C1016   1.405   1_455  A
C1015      C1020   1.394       .  A
C1015      H1022   1.084       .  S
C1016      C1017   1.415       .  A
C1017      C1018   1.412       .  A
C1017      N1024   1.437       .  S
C1018      C1019   1.403       .  A
C1018      H1023   1.084       .  S
C1019      C1020   1.412   1_655  A
C1020      N1021   1.440       .  S
N1021      H1025   1.046       .  S
N1021      H1026   1.043       .  S
N1024      H1027   1.046       .  S
N1024      H1028   1.046       .  S
C1029      C1030   1.403       .  A
C1029      C1034   1.404       .  A
C1029      H1036   1.084       .  S
C1030      C1031   1.408       .  A
C1031      C1032   1.386       .  A
C1031      N1038   1.434       .  S
C1032      C1033   1.400       .  A
C1032      H1037   1.085       .  S
C1033      C1034   1.413       .  A
C1034      N1035   1.438       .  S
N1035      H1039   1.046       .  S
N1035      H1040   1.044       .  S
N1038      H1041   1.046       .  S
N1038      H1042   1.045       .  S
C1043      C1044   1.400       .  A
C1043      C1048   1.390       .  A
C1043      H1050   1.084       .  S
C1044      C1045   1.414       .  A
C1045      C1046   1.420       .  A
C1045      N1052   1.436       .  S
C1046      C1047   1.409       .  A
C1046      H1051   1.083       .  S
C1047      C1048   1.412       .  A
C1048      N1049   1.434       .  S
N1049      H1053   1.046       .  S
N1049      H1054   1.046       .  S
N1052      H1055   1.045       .  S
N1052      H1056   1.046       .  S
C1057      C1058   1.403       .  A
C1057      C1062   1.412       .  A
C1057      H1064   1.084       .  S
C1058      C1059   1.407       .  A
C1059      C1060   1.404       .  A
C1059      N1066   1.438       .  S
C1060      C1061   1.407       .  A
C1060      H1065   1.083       .  S
C1061      C1062   1.418       .  A
C1062      N1063   1.438       .  S
N1063      H1067   1.046       .  S
N1063      H1068   1.045       .  S
N1066      H1069   1.045       .  S
N1066      H1070   1.046       .  S
C1071      C1072   1.410       .  A
C1071      C1076   1.399       .  A
C1071      H1078   1.084       .  S
C1072      C1073   1.412       .  A
C1073      C1074   1.417       .  A
C1073      N1080   1.436       .  S
C1074      C1075   1.409       .  A
C1074      H1079   1.084       .  S
C1075      C1076   1.412       .  A
C1076      N1077   1.439       .  S
N1077      H1081   1.046       .  S
N1077      H1082   1.043       .  S
N1080      H1083   1.046       .  S
N1080      H1084   1.046       .  S
C1085      C1086   1.410       .  A
C1085      C1090   1.409       .  A
C1085      H1092   1.084       .  S
C1086      C1087   1.421       .  A
C1087      C1088   1.408       .  A
C1087      N1094   1.440       .  S
C1088      C1089   1.408       .  A
C1088      H1093   1.084       .  S
C1089      C1090   1.419       .  A
C1090      N1091   1.439       .  S
N1091      H1095   1.046       .  S
N1091      H1096   1.041       .  S
N1094      H1097   1.041       .  S
N1094      H1098   1.046       .  S
C1099      C1100   1.396       .  A
C1099      C1104   1.404       .  A
C1099      H1106   1.084       .  S
C1100      C1101   1.410       .  A
C1101      C1102   1.411       .  A
C1101      N1108   1.437       .  S
C1102      C1103   1.407       .  A
C1102      H1107   1.083       .  S
C1103      C1104   1.422       .  A
C1104      N1105   1.439       .  S
N1105      H1109   1.046       .  S
N1105      H1110   1.046       .  S
N1108      H1111   1.045       .  S
N1108      H1112   1.046       .  S
C1113      C1114   1.402       .  A
C1113      C1118   1.398       .  A
C1113      H1120   1.085       .  S
C1114      C1115   1.412       .  A
C1115      C1116   1.406       .  A
C1115      N1122   1.437       .  S
C1116      C1117   1.408       .  A
C1116      H1121   1.083       .  S
C1117      C1118   1.411       .  A
C1118      N1119   1.433       .  S
N1119      H1123   1.046       .  S
N1119      H1124   1.046       .  S
N1122      H1125   1.044       .  S
N1122      H1126   1.045       .  S
C1127      C1128   1.404       .  A
C1127      C1132   1.396       .  A
C1127      H1134   1.083       .  S
C1128      C1129   1.421       .  A
C1129      C1130   1.416       .  A
C1129      N1136   1.431       .  S
C1130      C1131   1.407       .  A
C1130      H1135   1.083       .  S
C1131      C1132   1.417       .  A
C1132      N1133   1.441       .  S
N1133      H1137   1.046       .  S
N1133      H1138   1.043       .  S
N1136      H1139   1.046       .  S
N1136      H1140   1.045       .  S
C1141      C1142   1.411       .  A
C1141      C1146   1.413       .  A
C1141      H1148   1.082       .  S
C1142      C1143   1.412       .  A
C1143      C1144   1.407       .  A
C1143      N1150   1.438       .  S
C1144      C1145   1.410       .  A
C1144      H1149   1.083       .  S
C1145      C1146   1.412       .  A
C1146      N1147   1.437       .  S
N1147      H1151   1.046       .  S
N1147      H1152   1.046       .  S
N1150      H1153   1.046       .  S
N1150      H1154   1.046       .  S
C1155      C1156   1.402       .  A
C1155      C1160   1.407       .  A
C1155      H1162   1.084       .  S
C1156      C1157   1.412       .  A
C1157      C1158   1.402       .  A
C1157      N1164   1.434       .  S
C1158      C1159   1.402       .  A
C1158      H1163   1.085       .  S
C1159      C1160   1.411       .  A
C1160      N1161   1.429       .  S
N1161      H1165   1.045       .  S
N1161      H1166   1.046       .  S
N1164      H1167   1.046       .  S
N1164      H1168   1.045       .  S
C1169      C1170   1.412       .  A
C1169      C1174   1.411       .  A
C1169      H1176   1.084       .  S
C1170      C1171   1.407       .  A
C1171      C1172   1.401       .  A
C1171      N1178   1.432       .  S
C1172      C1173   1.416       .  A
C1172      H1177   1.083       .  S
C1173      C1174   1.421       .  A
C1174      N1175   1.439       .  S
N1175      H1179   1.046       .  S
N1175      H1180   1.038       .  S
N1178      H1181   1.046       .  S
N1178      H1182   1.044       .  S
C1183      C1184   1.398   1_455  A
C1183      C1188   1.398       .  A
C1183      H1190   1.084   1_455  S
C1184      C1185   1.414       .  A
C1185      C1186   1.385   1_655  A
C1185      N1192   1.441       .  S
C1186      C1187   1.397       .  A
C1186      H1191   1.085       .  S
C1187      C1188   1.415       .  A
C1188      N1189   1.438       .  S
N1189      H1193   1.046       .  S
N1189      H1194   1.043       .  S
N1192      H1195   1.041       .  S
N1192      H1196   1.046       .  S
C1197      C1198   1.402       .  A
C1197      C1202   1.403       .  A
C1197      H1204   1.084       .  S
C1198      C1199   1.413       .  A
C1199      C1200   1.401       .  A
C1199      N1206   1.438       .  S
C1200      C1201   1.404       .  A
C1200      H1205   1.084       .  S
C1201      C1202   1.414       .  A
C1202      N1203   1.438       .  S
N1203      H1207   1.046       .  S
N1203      H1208   1.045       .  S
N1206      H1209   1.044       .  S
N1206      H1210   1.045       .  S
C1211      C1212   1.402       .  A
C1211      C1216   1.402       .  A
C1211      H1218   1.083       .  S
C1212      C1213   1.419       .  A
C1213      C1214   1.419       .  A
C1213      N1220   1.438       .  S
C1214      C1215   1.405       .  A
C1214      H1219   1.084       .  S
C1215      C1216   1.408       .  A
C1216      N1217   1.431       .  S
N1217      H1221   1.045       .  S
N1217      H1222   1.045       .  S
N1220      H1223   1.045       .  S
N1220      H1224   1.046       .  S
C1225      C1226   1.391       .  A
C1225      C1230   1.393       .  A
C1225      H1232   1.085       .  S
C1226      C1227   1.409       .  A
C1227      C1228   1.397       .  A
C1227      N1234   1.438       .  S
C1228      C1229   1.396       .  A
C1228      H1233   1.084       .  S
C1229      C1230   1.405       .  A
C1230      N1231   1.434       .  S
N1231      H1235   1.044       .  S
N1231      H1236   1.046       .  S
N1234      H1237   1.046       .  S
N1234      H1238   1.046       .  S
C1239      C1240   1.410       .  A
C1239      C1244   1.404   1_655  A
C1239      H1246   1.083       .  S
C1240      C1241   1.403       .  A
C1241      C1242   1.399   1_655  A
C1241      N1248   1.438       .  S
C1242      C1243   1.410       .  A
C1242      H1247   1.083       .  S
C1243      C1244   1.405       .  A
C1244      N1245   1.437       .  S
N1245      H1249   1.046       .  S
N1245      H1250   1.046       .  S
N1248      H1251   1.046       .  S
N1248      H1252   1.046       .  S
C1253      C1254   1.403       .  A
C1253      C1258   1.400       .  A
C1253      H1260   1.083       .  S
C1254      C1255   1.418       .  A
C1255      C1256   1.428       .  A
C1255      N1262   1.436       .  S
C1256      C1257   1.413       .  A
C1256      H1261   1.083       .  S
C1257      C1258   1.423       .  A
C1258      N1259   1.440       .  S
N1259      H1263   1.046       .  S
N1259      H1264   1.046       .  S
N1262      H1265   1.046       .  S
N1262      H1266   1.046       .  S
C1267      C1268   1.402       .  A
C1267      C1272   1.405       .  A
C1267      H1274   1.084       .  S
C1268      C1269   1.412       .  A
C1269      C1270   1.395       .  A
C1269      N1276   1.433       .  S
C1270      C1271   1.398       .  A
C1270      H1275   1.084       .  S
C1271      C1272   1.415       .  A
C1272      N1273   1.438       .  S
N1273      H1277   1.046       .  S
N1273      H1278   1.045       .  S
N1276      H1279   1.044       .  S
N1276      H1280   1.043       .  S
C1281      C1282   1.409   1_556  A
C1281      C1286   1.406       .  A
C1281      H1288   1.085       .  S
C1282      C1283   1.397       .  A
C1283      C1284   1.399   1_554  A
C1283      N1290   1.439       .  S
C1284      C1285   1.414       .  A
C1284      H1289   1.083       .  S
C1285      C1286   1.408       .  A
C1286      N1287   1.437       .  S
N1287      H1291   1.046       .  S
N1287      H1292   1.045       .  S
N1290      H1293   1.045       .  S
N1290      H1294   1.046       .  S
C1295      C1296   1.416       .  A
C1295      C1300   1.397   1_554  A
C1295      H1302   1.083       .  S
C1296      C1297   1.421       .  A
C1297      C1298   1.419   1_554  A
C1297      N1304   1.437       .  S
C1298      C1299   1.412       .  A
C1298      H1303   1.084       .  S
C1299      C1300   1.409       .  A
C1300      N1301   1.441       .  S
N1301      H1305   1.046       .  S
N1301      H1306   1.041       .  S
N1304      H1307   1.041       .  S
N1304      H1308   1.046       .  S
C1309      C1310   1.404       .  A
C1309      C1314   1.410       .  A
C1309      H1316   1.083       .  S
C1310      C1311   1.425       .  A
C1311      C1312   1.412       .  A
C1311      N1318   1.437       .  S
C1312      C1313   1.399       .  A
C1312      H1317   1.084       .  S
C1313      C1314   1.414       .  A
C1314      N1315   1.438       .  S
N1315      H1319   1.046       .  S
N1315      H1320   1.045       .  S
N1318      H1321   1.045       .  S
N1318      H1322   1.046       .  S
C1323      C1324   1.404       .  A
C1323      C1328   1.413       .  A
C1323      H1330   1.083       .  S
C1324      C1325   1.406       .  A
C1325      C1326   1.394       .  A
C1325      N1332   1.433   1_655  S
C1326      C1327   1.401       .  A
C1326      H1331   1.085       .  S
C1327      C1328   1.413       .  A
C1328      N1329   1.437       .  S
N1329      H1333   1.044       .  S
N1329      H1334   1.045       .  S
N1332      H1335   1.046       .  S
N1332      H1336   1.043       .  S
C1337      C1338   1.398       .  A
C1337      C1342   1.397   1_556  A
C1337      H1344   1.085       .  S
C1338      C1339   1.422   1_565  A
C1339      C1340   1.408       .  A
C1339      N1346   1.436       .  S
C1340      C1341   1.402   1_556  A
C1340      H1345   1.084       .  S
C1341      C1342   1.413   1_545  A
C1342      N1343   1.434       .  S
N1343      H1347   1.046       .  S
N1343      H1348   1.046       .  S
N1346      H1349   1.041       .  S
N1346      H1350   1.046       .  S
C1351      C1352   1.408       .  A
C1351      C1356   1.408       .  A
C1351      H1358   1.084       .  S
C1352      C1353   1.417   1_556  A
C1353      C1354   1.407       .  A
C1353      N1360   1.438       .  S
C1354      C1355   1.403       .  A
C1354      H1359   1.084       .  S
C1355      C1356   1.419   1_554  A
C1356      N1357   1.438       .  S
N1357      H1361   1.046       .  S
N1357      H1362   1.041   1_556  S
N1360      H1363   1.046   1_554  S
N1360      H1364   1.046       .  S
C1365      C1366   1.404       .  A
C1365      C1370   1.407       .  A
C1365      H1372   1.083       .  S
C1366      C1367   1.418       .  A
C1367      C1368   1.416       .  A
C1367      N1374   1.437       .  S
C1368      C1369   1.407       .  A
C1368      H1373   1.083       .  S
C1369      C1370   1.420       .  A
C1370      N1371   1.439       .  S
N1371      H1375   1.046       .  S
N1371      H1376   1.046       .  S
N1374      H1377   1.046       .  S
N1374      H1378   1.046       .  S
C1379      C1380   1.408       .  A
C1379      C1384   1.411       .  A
C1379      H1386   1.084       .  S
C1380      C1381   1.418       .  A
C1381      C1382   1.407       .  A
C1381      N1388   1.439       .  S
C1382      C1383   1.408       .  A
C1382      H1387   1.084       .  S
C1383      C1384   1.422       .  A
C1384      N1385   1.439       .  S
N1385      H1389   1.046       .  S
N1385      H1390   1.040       .  S
N1388      H1391   1.041       .  S
N1388      H1392   1.046       .  S
C1393      C1394   1.401       .  A
C1393      C1398   1.418       .  A
C1393      H1400   1.083       .  S
C1394      C1395   1.427       .  A
C1395      C1396   1.398       .  A
C1395      N1402   1.435       .  S
C1396      C1397   1.391       .  A
C1396      H1401   1.085       .  S
C1397      C1398   1.416       .  A
C1398      N1399   1.435       .  S
N1399      H1403   1.045       .  S
N1399      H1404   1.046       .  S
N1402      H1405   1.046       .  S
N1402      H1406   1.045       .  S
C1407      C1408   1.405       .  A
C1407      C1412   1.411       .  A
C1407      H1414   1.084       .  S
C1408      C1409   1.412       .  A
C1409      C1410   1.404       .  A
C1409      N1416   1.438       .  S
C1410      C1411   1.409       .  A
C1410      H1415   1.085       .  S
C1411      C1412   1.422       .  A
C1412      N1413   1.436       .  S
N1413      H1417   1.045       .  S
N1413      H1418   1.039       .  S
N1416      H1419   1.044       .  S
N1416      H1420   1.046       .  S
C1421      C1422   1.408   1_556  A
C1421      C1426   1.421       .  A
C1421      H1428   1.084       .  S
C1422      C1423   1.422       .  A
C1423      C1424   1.406   1_554  A
C1423      N1430   1.439       .  S
C1424      C1425   1.400       .  A
C1424      H1429   1.084       .  S
C1425      C1426   1.415       .  A
C1426      N1427   1.436       .  S
N1427      H1431   1.045       .  S
N1427      H1432   1.046       .  S
N1430      H1433   1.044       .  S
N1430      H1434   1.046       .  S
C1435      C1436   1.413   1_556  A
C1435      C1440   1.422       .  A
C1435      H1442   1.084       .  S
C1436      C1437   1.405       .  A
C1437      C1438   1.384   1_554  A
C1437      N1444   1.441       .  S
C1438      C1439   1.411       .  A
C1438      H1443   1.085       .  S
C1439      C1440   1.411       .  A
C1440      N1441   1.435       .  S
N1441      H1445   1.045       .  S
N1441      H1446   1.045       .  S
N1444      H1447   1.045       .  S
N1444      H1448   1.046       .  S
C1449      C1450   1.406       .  A
C1449      C1454   1.404       .  A
C1449      H1456   1.084       .  S
C1450      C1451   1.414       .  A
C1451      C1452   1.398       .  A
C1451      N1458   1.433       .  S
C1452      C1453   1.405       .  A
C1452      H1457   1.084       .  S
C1453      C1454   1.416       .  A
C1454      N1455   1.432       .  S
N1455      H1459   1.044       .  S
N1455      H1460   1.046       .  S
N1458      H1461   1.046       .  S
N1458      H1462   1.044       .  S
C1463      C1464   1.405   1_455  A
C1463      C1468   1.409       .  A
C1463      H1470   1.083       .  S
C1464      C1465   1.413   1_655  A
C1465      C1466   1.413       .  A
C1465      N1472   1.436   1_455  S
C1466      C1467   1.407       .  A
C1466      H1471   1.083       .  S
C1467      C1468   1.416       .  A
C1468      N1469   1.438       .  S
N1469      H1473   1.046       .  S
N1469      H1474   1.046       .  S
N1472      H1475   1.046       .  S
N1472      H1476   1.044   1_655  S
C1477      C1478   1.401       .  A
C1477      C1482   1.409       .  A
C1477      H1484   1.084       .  S
C1478      C1479   1.420       .  A
C1479      C1480   1.410       .  A
C1479      N1486   1.438       .  S
C1480      C1481   1.406       .  A
C1480      H1485   1.084       .  S
C1481      C1482   1.417       .  A
C1482      N1483   1.438       .  S
N1483      H1487   1.046       .  S
N1483      H1488   1.046       .  S
N1486      H1489   1.043       .  S
N1486      H1490   1.046       .  S
C1491      C1492   1.403       .  A
C1491      C1496   1.406       .  A
C1491      H1498   1.084       .  S
C1492      C1493   1.412       .  A
C1493      C1494   1.393       .  A
C1493      N1500   1.440       .  S
C1494      C1495   1.403       .  A
C1494      H1499   1.085       .  S
C1495      C1496   1.420       .  A
C1496      N1497   1.438       .  S
N1497      H1501   1.046       .  S
N1497      H1502   1.040       .  S
N1500      H1503   1.044       .  S
N1500      H1504   1.046       .  S
C1505      C1506   1.402   1_556  A
C1505      C1510   1.397       .  A
C1505      H1512   1.086   1_556  S
C1506      C1507   1.420   1_545  A
C1507      C1508   1.415   1_554  A
C1507      N1514   1.437       .  S
C1508      C1509   1.409       .  A
C1508      H1513   1.083       .  S
C1509      C1510   1.413   1_565  A
C1510      N1511   1.439       .  S
N1511      H1515   1.046       .  S
N1511      H1516   1.046       .  S
N1514      H1517   1.042       .  S
N1514      H1518   1.045       .  S
C1519      C1520   1.410       .  A
C1519      C1524   1.399   1_556  A
C1519      H1526   1.084       .  S
C1520      C1521   1.403   1_556  A
C1521      C1522   1.408       .  A
C1521      N1528   1.437       .  S
C1522      C1523   1.413       .  A
C1522      H1527   1.084       .  S
C1523      C1524   1.412       .  A
C1524      N1525   1.439   1_554  S
N1525      H1529   1.046       .  S
N1525      H1530   1.041   1_556  S
N1528      H1531   1.046   1_554  S
N1528      H1532   1.046       .  S
C1533      C1534   1.410       .  A
C1533      C1538   1.407       .  A
C1533      H1540   1.084       .  S
C1534      C1535   1.421       .  A
C1535      C1536   1.405       .  A
C1535      N1542   1.440       .  S
C1536      C1537   1.405       .  A
C1536      H1541   1.085       .  S
C1537      C1538   1.411       .  A
C1538      N1539   1.438       .  S
N1539      H1543   1.046       .  S
N1539      H1544   1.044       .  S
N1542      H1545   1.040       .  S
N1542      H1546   1.046       .  S
C1547      C1548   1.406       .  A
C1547      C1552   1.397       .  A
C1547      H1554   1.083       .  S
C1548      C1549   1.416       .  A
C1549      C1550   1.402       .  A
C1549      N1556   1.432       .  S
C1550      C1551   1.400       .  A
C1550      H1555   1.084       .  S
C1551      C1552   1.404       .  A
C1552      N1553   1.439       .  S
N1553      H1557   1.046       .  S
N1553      H1558   1.045       .  S
N1556      H1559   1.046       .  S
N1556      H1560   1.044       .  S
C1561      C1562   1.405       .  A
C1561      C1566   1.411       .  A
C1561      H1568   1.083       .  S
C1562      C1563   1.424       .  A
C1563      C1564   1.392       .  A
C1563      N1570   1.440       .  S
C1564      C1565   1.389       .  A
C1564      H1569   1.085       .  S
C1565      C1566   1.408       .  A
C1566      N1567   1.436       .  S
N1567      H1571   1.046       .  S
N1567      H1572   1.046       .  S
N1570      H1573   1.046       .  S
N1570      H1574   1.046       .  S
C1575      C1576   1.400       .  A
C1575      C1580   1.409   1_655  A
C1575      H1582   1.084       .  S
C1576      C1577   1.405       .  A
C1577      C1578   1.394   1_655  A
C1577      N1584   1.440       .  S
C1578      C1579   1.405       .  A
C1578      H1583   1.083       .  S
C1579      C1580   1.415       .  A
C1580      N1581   1.437       .  S
N1581      H1585   1.046       .  S
N1581      H1586   1.046       .  S
N1584      H1587   1.046       .  S
N1584      H1588   1.046       .  S
C1589      C1590   1.396       .  A
C1589      C1594   1.401       .  A
C1589      H1596   1.084       .  S
C1590      C1591   1.424       .  A
C1591      C1592   1.403       .  A
C1591      N1598   1.439       .  S
C1592      C1593   1.394       .  A
C1592      H1597   1.084       .  S
C1593      C1594   1.420       .  A
C1594      N1595   1.439       .  S
N1595      H1599   1.046       .  S
N1595      H1600   1.046       .  S
N1598      H1601   1.046       .  S
N1598      H1602   1.046       .  S
C1603      C1604   1.410       .  A
C1603      C1608   1.400       .  A
C1603      H1610   1.084       .  S
C1604      C1605   1.413       .  A
C1605      C1606   1.420       .  A
C1605      N1612   1.436       .  S
C1606      C1607   1.410       .  A
C1606      H1611   1.084       .  S
C1607      C1608   1.412       .  A
C1608      N1609   1.440       .  S
N1609      H1613   1.046       .  S
N1609      H1614   1.044       .  S
N1612      H1615   1.045       .  S
N1612      H1616   1.046       .  S
