geometry optimzed in LAMMPS
_audit_creation_date              2020-12-01 
_audit_creation_method            'lammps2cif' 
_symmetry_space_group_name_H-M    'P1' 
_symmetry_Int_Tables_number       1 
_symmetry_cell_setting            triclinic 
loop_ 
_symmetry_equiv_pos_as_xyz 
  x,y,z 
_cell_length_a                    45.58696748 
_cell_length_b                    45.712028059350885 
_cell_length_c                    45.698323317325176 
_cell_angle_alpha                 88.93116273770578 
_cell_angle_beta                  89.84625810169115 
_cell_angle_gamma                 90.36536278047663 
loop_ 
_atom_site_label 
_atom_site_type_symbol 
_atom_site_fract_x 
_atom_site_fract_y 
_atom_site_fract_z 
_atom_site_charge 
N1          N  0.19387051  0.78603464  0.45068506    -0.27600
N2          N  0.17572728  0.80629638  0.44051621    -0.35500
C3          C  0.17725652  0.80805189  0.41106200     0.00700
C4          C  0.19641982  0.78719689  0.40056917     0.06700
C5          C  0.20658736  0.77365652  0.42681745    -0.06400
H6          H  0.16491391  0.82364228  0.39815796     0.07400
H7          H  0.22183065  0.75559330  0.42835458     0.08600
Cu8        Cu  0.14536097  0.82857800  0.46560677     0.44200
Cu9        Cu  0.19912365  0.77851151  0.49828941     0.42000
Cu10       Cu  0.13498129  0.80326102  0.53864957     0.43900
N11         N  0.11166981  0.84355594  0.49207418    -0.35000
N12         N  0.10729312  0.83335922  0.51897867    -0.29300
C13         C  0.08566748  0.84863274  0.53157250    -0.05400
C14         C  0.07578231  0.86930640  0.51149892     0.06800
C15         C  0.09275549  0.86547886  0.48671504     0.00600
H16         H  0.07900830  0.84621070  0.55425377     0.08300
H17         H  0.09255490  0.87887201  0.46683915     0.07400
N18         N  0.17094892  0.78528336  0.55956866    -0.36500
N19         N  0.19574384  0.77787330  0.54655840    -0.28700
C20         C  0.21536061  0.77174747  0.56841345    -0.03900
C21         C  0.20209005  0.77550314  0.59618706     0.04700
C22         C  0.17383363  0.78368070  0.58888611     0.02800
H23         H  0.23792957  0.76571662  0.56453925     0.07900
H24         H  0.15644921  0.78893937  0.60403902     0.06700
N25         N  0.79795622  0.24247713  0.44932520    -0.27600
N26         N  0.82428466  0.24708269  0.43772354    -0.35500
C27         C  0.82280969  0.24736533  0.40840427     0.00700
C28         C  0.79425008  0.24263229  0.40010719     0.06700
C29         C  0.77880173  0.23988640  0.42668665    -0.06400
H30         H  0.84147112  0.25060103  0.39402545     0.07400
H31         H  0.75546381  0.23621471  0.42921508     0.08600
Cu32       Cu  0.86309516  0.24938846  0.45999596     0.44200
Cu33       Cu  0.79178521  0.23980659  0.49637560     0.42000
Cu34       Cu  0.86331753  0.24553715  0.53437282     0.43900
N35         N  0.89946826  0.23522516  0.48206665    -0.35000
N36         N  0.90007585  0.23458002  0.51087787    -0.29300
C37         C  0.91991189  0.21480694  0.51987253    -0.05400
C38         C  0.93137899  0.20141489  0.49545051     0.06800
C39         C  0.91841402  0.21549096  0.47185955     0.00600
H40         H  0.92100340  0.20626900  0.54205965     0.08300
H41         H  0.91822282  0.20780807  0.44960593     0.07400
N42         N  0.82354616  0.24203943  0.55571893    -0.36500
N43         N  0.79733103  0.23937278  0.54350975    -0.28700
C44         C  0.77737671  0.23670673  0.56567061    -0.03900
C45         C  0.79211412  0.23737396  0.59261901     0.04700
C46         C  0.82114944  0.24086588  0.58500660     0.02800
H47         H  0.75401274  0.23465106  0.56256463     0.07900
H48         H  0.83945294  0.24274772  0.59987286     0.06700
N49         N  0.77022498  0.79805663  0.45737453    -0.27600
N50         N  0.77047033  0.82548507  0.44777366    -0.35500
C51         C  0.76695220  0.82657509  0.41860492     0.00700
C52         C  0.76532691  0.79842883  0.40810931     0.06700
C53         C  0.76725087  0.78077170  0.43362720    -0.06400
H54         H  0.76705238  0.84663391  0.40574950     0.07400
H55         H  0.76756640  0.75704720  0.43463931     0.08600
Cu56       Cu  0.78450108  0.85988117  0.47254810     0.44200
Cu57       Cu  0.77589144  0.78911161  0.50354393     0.42000
Cu58       Cu  0.83275858  0.83577056  0.53054047     0.43900
N59         N  0.81568786  0.88617647  0.49138924    -0.35000
N60         N  0.83472384  0.87661909  0.51106087    -0.29300
C61         C  0.85357846  0.89824877  0.51720641    -0.05400
C62         C  0.84613559  0.92243039  0.50039673     0.06800
C63         C  0.82205806  0.91412494  0.48422500     0.00600
H64         H  0.87160763  0.89639352  0.53252736     0.08300
H65         H  0.81063558  0.92702385  0.46790899     0.07400
N66         N  0.81004075  0.80743117  0.55766039    -0.36500
N67         N  0.78654108  0.79272122  0.54935678    -0.28700
C68         C  0.77221805  0.78365062  0.57402656    -0.03900
C69         C  0.78777505  0.79282415  0.59883974     0.04700
C70         C  0.81179831  0.80744446  0.58701999     0.02800
H71         H  0.75131562  0.77219260  0.57396701     0.07900
H72         H  0.82880143  0.81867010  0.59891480     0.06700
N73         N  0.53616142  0.77998305  0.20902446    -0.27600
N74         N  0.54604607  0.78109951  0.18186724    -0.35500
C75         C  0.57559428  0.78099965  0.18155832     0.00700
C76         C  0.58608779  0.78096187  0.21003848     0.06700
C77         C  0.56000010  0.78028950  0.22689917    -0.06400
H78         H  0.58851153  0.78209617  0.16172959     0.07400
H79         H  0.55850210  0.78104544  0.25051465     0.08600
Cu80       Cu  0.51965239  0.79389664  0.14763759     0.44200
Cu81       Cu  0.48904579  0.78001678  0.21669833     0.42000
Cu82       Cu  0.45898752  0.83836002  0.17628911     0.43900
N83         N  0.50125104  0.82918899  0.12608027    -0.35000
N84         N  0.48091609  0.84629804  0.13725726    -0.29300
C85         C  0.47792569  0.87004752  0.11985796    -0.05400
C86         C  0.49743630  0.86778779  0.09692560     0.06800
C87         C  0.51199927  0.84182469  0.10152503     0.00600
H88         H  0.46396847  0.88841758  0.12455018     0.08300
H89         H  0.53066248  0.83391861  0.08937178     0.07400
N90         N  0.43289434  0.81322874  0.20383980    -0.36500
N91         N  0.44212752  0.78802733  0.21469894    -0.28700
C92         C  0.41787571  0.77190060  0.22191327    -0.03900
C93         C  0.39213155  0.78827716  0.21631451     0.04700
C94         C  0.40347198  0.81467127  0.20551998     0.02800
H95         H  0.41897566  0.74938814  0.22935173     0.07900
H96         H  0.39132826  0.83355115  0.19822164     0.06700
N97         N  0.78879383  0.55850671  0.22700255    -0.27600
N98         N  0.80916795  0.56900286  0.20892408    -0.35500
C99         C  0.80721789  0.59826891  0.20646877     0.00700
C100        C  0.78554484  0.60840734  0.22491513     0.06700
C101        C  0.77426311  0.58210025  0.23764060    -0.06400
H102        H  0.82106068  0.61127981  0.19191778     0.07400
H103        H  0.75708011  0.58028619  0.25388654     0.08600
Cu104      Cu  0.84290633  0.54530215  0.19108520     0.44200
Cu105      Cu  0.78290699  0.51101072  0.23367983     0.42000
Cu106      Cu  0.84989003  0.47243352  0.21411641     0.43900
N107        N  0.87742157  0.51980156  0.17775045    -0.35000
N108        N  0.87998795  0.49216745  0.18608450    -0.29300
C109        C  0.90057887  0.47943526  0.16951676    -0.05400
C110        C  0.91165373  0.50029981  0.15003698     0.06800
C111        C  0.89663859  0.52569517  0.15610302     0.00600
H112        H  0.90481277  0.45622398  0.16945124     0.08300
H113        H  0.89718842  0.54589426  0.14340376     0.07400
N114        N  0.81302951  0.45099071  0.23006897    -0.36500
N115        N  0.78708369  0.46303394  0.23448340    -0.28700
C116        C  0.76730860  0.44047376  0.23741873    -0.03900
C117        C  0.78184454  0.41334169  0.23490166     0.04700
C118        C  0.81077281  0.42166870  0.23088502     0.02800
H119        H  0.74389992  0.44346750  0.23954255     0.07900
H120        H  0.82892342  0.40722665  0.22649669     0.06700
N121        N  0.78740439  0.55913651  0.79627177    -0.27600
N122        N  0.78929356  0.56876940  0.82341435    -0.35500
C123        C  0.78985963  0.59825273  0.82347576     0.00700
C124        C  0.78812600  0.60904071  0.79514341     0.06700
C125        C  0.78647188  0.58338527  0.77836297    -0.06400
H126        H  0.79013334  0.61108764  0.84313509     0.07400
H127        H  0.78384446  0.58264225  0.75490183     0.08600
Cu128      Cu  0.78954374  0.54306923  0.86103692     0.44200
Cu129      Cu  0.78490916  0.51190182  0.78692003     0.42000
Cu130      Cu  0.77394958  0.46987359  0.85443853     0.43900
N131        N  0.79666249  0.51380294  0.89508165    -0.35000
N132        N  0.79086016  0.48573024  0.89225515    -0.29300
C133        C  0.80806051  0.47015830  0.91041856    -0.05400
C134        C  0.82584301  0.48938980  0.92521097     0.06800
C135        C  0.81730674  0.51696247  0.91565707     0.00600
H136        H  0.81164428  0.44689367  0.90852484     0.08300
H137        H  0.82955562  0.53702749  0.91870516     0.07400
N138        N  0.77741535  0.45027833  0.81485526    -0.36500
N139        N  0.78201448  0.46363709  0.78926877    -0.28700
C140        C  0.78454377  0.44197090  0.76912263    -0.03900
C141        C  0.78211891  0.41427849  0.78335753     0.04700
C142        C  0.77749867  0.42110377  0.81211267     0.02800
H143        H  0.78783685  0.44583489  0.74597863     0.07900
H144        H  0.77414352  0.40565124  0.83015762     0.06700
N145        N  0.54935917  0.22710133  0.79157161    -0.27600
N146        N  0.56040636  0.23608924  0.81669236    -0.35500
C147        C  0.58974191  0.23842774  0.81479152     0.00700
C148        C  0.59898222  0.23012552  0.78741555     0.06700
C149        C  0.57250503  0.22323052  0.77306355    -0.06400
H150        H  0.60357410  0.24525101  0.83257096     0.07400
H151        H  0.57036586  0.21554524  0.75088953     0.08600
Cu152      Cu  0.53838878  0.24002884  0.85592790     0.44200
Cu153      Cu  0.50216906  0.22064510  0.78568017     0.42000
Cu154      Cu  0.46616370  0.21905551  0.85638255     0.43900
N155        N  0.51872086  0.22413510  0.89370606    -0.35000
N156        N  0.49130143  0.21497999  0.89301158    -0.29300
C157        C  0.48679209  0.19523051  0.91454644    -0.05400
C158        C  0.51275812  0.19136919  0.92956169     0.06800
C159        C  0.53238243  0.21082488  0.91629560     0.00600
H160        H  0.46765447  0.18109429  0.91594569     0.08300
H161        H  0.55584713  0.21150495  0.91958352     0.07400
N162        N  0.44325409  0.21588274  0.81831754    -0.36500
N163        N  0.45472759  0.21640072  0.79167846    -0.28700
C164        C  0.43181464  0.21477118  0.77263994    -0.03900
C165        C  0.40521505  0.21280598  0.78845195     0.04700
C166        C  0.41390429  0.21372669  0.81719982     0.02800
H167        H  0.43408222  0.21582725  0.74904368     0.07900
H168        H  0.39972143  0.21406248  0.83614501     0.06700
N169        N  0.20058957  0.54087274  0.78338924    -0.27600
N170        N  0.17408736  0.55233440  0.78589912    -0.35500
C171        C  0.17586592  0.58182765  0.78481304     0.00700
C172        C  0.20494823  0.59082711  0.78216066     0.06700
C173        C  0.21996799  0.56377991  0.78138124    -0.06400
H174        H  0.15693675  0.59593731  0.78565248     0.07400
H175        H  0.24346666  0.56099661  0.77965406     0.08600
Cu176      Cu  0.13558511  0.52820289  0.79267099     0.44200
Cu177      Cu  0.20685755  0.49304332  0.78148301     0.42000
Cu178      Cu  0.13759039  0.45492546  0.77077140     0.43900
N179        N  0.10231039  0.49824959  0.80294352    -0.35000
N180        N  0.10262140  0.47125152  0.79321411    -0.29300
C181        C  0.08345739  0.45470130  0.80867063    -0.05400
C182        C  0.07039473  0.47199921  0.82929999     0.06800
C183        C  0.08274555  0.49956637  0.82497179     0.00600
H184        H  0.08268302  0.43101245  0.80819418     0.08300
H185        H  0.08079931  0.51788667  0.83947008     0.07400
N186        N  0.17669877  0.43306617  0.77186259    -0.36500
N187        N  0.20259640  0.44513684  0.77717540    -0.28700
C188        C  0.22216839  0.42263937  0.77934026    -0.03900
C189        C  0.20745282  0.39559381  0.77573080     0.04700
C190        C  0.17881982  0.40375168  0.77087490     0.02800
H191        H  0.24530969  0.42550406  0.78331833     0.07900
H192        H  0.16041497  0.38914053  0.76706297     0.06700
N193        N  0.54655067  0.79536258  0.78481607    -0.27600
N194        N  0.55531300  0.80353060  0.81092882    -0.35500
C195        C  0.58471717  0.80218465  0.81285927     0.00700
C196        C  0.59651513  0.79409670  0.78619577     0.06700
C197        C  0.57113928  0.79001965  0.76885387    -0.06400
H198        H  0.59660813  0.80765306  0.83240498     0.07400
H199        H  0.57056440  0.78454549  0.74597775     0.08600
Cu200      Cu  0.52880541  0.82669864  0.83851158     0.44200
Cu201      Cu  0.49978137  0.79312771  0.77548735     0.42000
Cu202      Cu  0.46496762  0.85674662  0.80131802     0.43900
N203        N  0.51040457  0.86660804  0.84764206    -0.35000
N204        N  0.48881114  0.87859239  0.83243868    -0.29300
C205        C  0.48393247  0.90562785  0.84226814    -0.05400
C206        C  0.50341698  0.91081164  0.86471959     0.06800
C207        C  0.51988252  0.88568841  0.86753857     0.00600
H208        H  0.46700159  0.92009753  0.83418712     0.08300
H209        H  0.53744632  0.88154729  0.88294139     0.07400
N210        N  0.44066594  0.82309137  0.78407729    -0.36500
N211        N  0.45227876  0.79791439  0.77648855    -0.28700
C212        C  0.42961569  0.77903485  0.77170363    -0.03900
C213        C  0.40263753  0.79326486  0.77629043     0.04700
C214        C  0.41117228  0.82128256  0.78374895     0.02800
H215        H  0.43243739  0.75636037  0.76604199     0.07900
H216        H  0.39686456  0.83908936  0.78945683     0.06700
N217        N  0.95113430  0.26366787  0.28299701    -0.27600
N218        N  0.93855701  0.26247245  0.30923168    -0.35500
C219        C  0.90920773  0.26218387  0.30664599     0.00700
C220        C  0.90158841  0.26385852  0.27751261     0.06700
C221        C  0.92890999  0.26458233  0.26292763    -0.06400
H222        H  0.89422448  0.26306171  0.32503398     0.07400
H223        H  0.93221238  0.26713449  0.23956931     0.08600
Cu224      Cu  0.95859873  0.26886947  0.34919000     0.44200
Cu225      Cu  0.99913443  0.26622888  0.27810053     0.42000
Cu226      Cu  0.03269999  0.28056239  0.34898750     0.43900
N227        N  0.97920504  0.28732623  0.38474453    -0.35000
N228        N  0.00778103  0.29168276  0.38438364    -0.29300
C229        C  0.01527616  0.30948252  0.40620529    -0.05400
C230        C  0.99006152  0.31689092  0.42108878     0.06800
C231        C  0.96750812  0.30237675  0.40691819     0.00600
H232        H  0.03675507  0.31921820  0.40870962     0.08300
H233        H  0.94428577  0.30549240  0.41017658     0.07400
N234        N  0.05702421  0.27464342  0.31185825    -0.36500
N235        N  0.04673588  0.26961089  0.28532325    -0.28700
C236        C  0.07062058  0.26777977  0.26727305    -0.03900
C237        C  0.09654691  0.27219859  0.28355418     0.04700
C238        C  0.08643569  0.27625816  0.31154922     0.02800
H239        H  0.06940961  0.26381137  0.24407506     0.07900
H240        H  0.09972332  0.28026154  0.33070492     0.06700
C241        C  0.25689883  0.22383551  0.25695322     0.01900
C242        C  0.24119311  0.24242546  0.27661218     0.01900
C243        C  0.22597071  0.26742924  0.26290202     0.01900
C244        C  0.23916048  0.28085224  0.23679754     0.01900
C245        C  0.26144922  0.26529369  0.22098146     0.01900
C246        C  0.27357978  0.23884598  0.23375253     0.01900
N247        N  0.26409739  0.95270955  0.28701394    -0.27600
N248        N  0.27070819  0.94196012  0.31328065    -0.35500
C249        C  0.27035583  0.91253830  0.31313389     0.00700
C250        C  0.26349740  0.90317571  0.28542388     0.06700
C251        C  0.25937763  0.92942972  0.26936360    -0.06400
H252        H  0.27561901  0.89884929  0.33184129     0.07400
H253        H  0.25412897  0.93131518  0.24631278     0.08600
Cu254      Cu  0.28540910  0.96588949  0.34812282     0.44200
Cu255      Cu  0.26429281  0.99975009  0.27813770     0.42000
Cu256      Cu  0.31203640  0.03582539  0.32972234     0.43900
N257        N  0.31375750  0.98824409  0.37477035    -0.35000
N258        N  0.32445634  0.01415051  0.36713220    -0.29300
C259        C  0.34678071  0.02089417  0.38480975    -0.05400
C260        C  0.35049409  0.99795014  0.40440724     0.06800
C261        C  0.32920567  0.97754984  0.39750191     0.00600
H262        H  0.36136374  0.03955846  0.38148146     0.08300
H263        H  0.32751431  0.95534209  0.40587153     0.07400
N264        N  0.29060607  0.05835747  0.29734736    -0.36500
N265        N  0.27152981  0.04692317  0.27891019    -0.28700
C266        C  0.25896965  0.06973211  0.26405422    -0.03900
C267        C  0.27114743  0.09616857  0.27379270     0.04700
C268        C  0.29095290  0.08766765  0.29481749     0.02800
H269        H  0.24166923  0.06747924  0.24815603     0.07900
H270        H  0.30373031  0.10196942  0.30857950     0.06700
C271        C  0.26448539  0.76203107  0.23564987     0.01900
C272        C  0.25003948  0.77646953  0.25988759     0.01900
C273        C  0.22496697  0.76256290  0.27437743     0.01900
C274        C  0.21034342  0.73804018  0.26026832     0.01900
C275        C  0.22461599  0.72401702  0.23545775     0.01900
C276        C  0.25005349  0.73776632  0.22137315     0.01900
C277        C  0.72075130  0.25018997  0.23784411     0.01900
C278        C  0.73431005  0.23631559  0.26359016     0.01900
C279        C  0.76018994  0.25102166  0.27526095     0.01900
C280        C  0.77436483  0.27390197  0.25799653     0.01900
C281        C  0.75960137  0.28639067  0.23278067     0.01900
C282        C  0.73992891  0.26710775  0.21818523     0.01900
N283        N  0.70975439  0.96497243  0.27473463    -0.27600
N284        N  0.68316471  0.95541945  0.26783697    -0.35500
C285        C  0.68197003  0.92603129  0.26931774     0.00700
C286        C  0.70891419  0.91523266  0.27742574     0.06700
C287        C  0.72628421  0.94070523  0.28042844    -0.06400
H288        H  0.66255110  0.91322852  0.26457346     0.07400
H289        H  0.74923521  0.94135192  0.28624797     0.08600
Cu290      Cu  0.64655223  0.98040080  0.26022703     0.44200
Cu291      Cu  0.72008740  0.01200002  0.27668709     0.42000
Cu292      Cu  0.65264335  0.04985682  0.28707144     0.43900
N293        N  0.61082642  0.00122848  0.27718635    -0.35000
N294        N  0.61392911  0.02729279  0.28864406    -0.29300
C295        C  0.59355634  0.03080614  0.30934549    -0.05400
C296        C  0.57717970  0.00542355  0.31162542     0.06800
C297        C  0.58804836  0.98741739  0.29018678     0.00600
H298        H  0.59437937  0.04799977  0.32535964     0.08300
H299        H  0.58384323  0.96422980  0.28854648     0.07400
N300        N  0.69190455  0.07152990  0.28681345    -0.36500
N301        N  0.71765312  0.05975372  0.28101415    -0.28700
C302        C  0.73730844  0.08246408  0.27852824    -0.03900
C303        C  0.72283979  0.10910900  0.28389291     0.04700
C304        C  0.69425538  0.10065447  0.28895821     0.02800
H305        H  0.76005437  0.08006141  0.27239496     0.07900
H306        H  0.67582219  0.11506464  0.29204128     0.06700
C307        C  0.75315017  0.73388040  0.24294746     0.01900
C308        C  0.76591234  0.74782008  0.26848283     0.01900
C309        C  0.75103350  0.77250109  0.28141486     0.01900
C310        C  0.72741086  0.78701169  0.26556199     0.01900
C311        C  0.71358889  0.77226756  0.24113772     0.01900
C312        C  0.72861611  0.74783027  0.22766292     0.01900
N313        N  0.94002644  0.71798248  0.30148865    -0.27600
N314        N  0.92995747  0.70373228  0.32497070    -0.35500
C315        C  0.90053254  0.70609428  0.32653336     0.00700
C316        C  0.89027390  0.72171412  0.30237838     0.06700
C317        C  0.91632059  0.72897999  0.28705082    -0.06400
H318        H  0.88744738  0.69617623  0.34380714     0.07400
H319        H  0.91776823  0.74073426  0.26623667     0.08600
Cu320      Cu  0.95439382  0.67458929  0.35011275     0.44200
Cu321      Cu  0.98682301  0.71987471  0.29117052     0.42000
Cu322      Cu  0.01847771  0.65207035  0.31191073     0.43900
N323        N  0.97553573  0.63532204  0.35877954    -0.35000
N324        N  0.99731608  0.62597604  0.34240024    -0.29300
C325        C  0.00478436  0.59886521  0.35118995    -0.05400
C326        C  0.98716018  0.59080322  0.37467838     0.06800
C327        C  0.96881153  0.61446877  0.37885579     0.00600
H328        H  0.02214037  0.58623041  0.34144385     0.08300
H329        H  0.95175811  0.61632433  0.39522318     0.07400
N330        N  0.04389879  0.68548891  0.29483680    -0.36500
N331        N  0.03385269  0.71177778  0.28789963    -0.28700
C332        C  0.05761857  0.72878036  0.28068358    -0.03900
C333        C  0.08346930  0.71213414  0.28357154     0.04700
C334        C  0.07329271  0.68486614  0.29238357     0.02800
H335        H  0.05642277  0.75166550  0.27434566     0.07900
H336        H  0.08647951  0.66588784  0.29733872     0.06700
N337        N  0.29978632  0.27835950  0.04591443    -0.27600
N338        N  0.32605444  0.27608257  0.05801217    -0.35500
C339        C  0.32395763  0.27754461  0.08737232     0.00700
C340        C  0.29499590  0.28166850  0.09553396     0.06700
C341        C  0.28031002  0.28218679  0.06823129    -0.06400
H342        H  0.34249431  0.27528585  0.10191496     0.07400
H343        H  0.25707480  0.28514325  0.06486562     0.08600
Cu344      Cu  0.36511796  0.27428836  0.03505014     0.44200
Cu345      Cu  0.29369648  0.27433006  0.99835743     0.42000
Cu346      Cu  0.36338233  0.26148486  0.96024706     0.43900
N347        N  0.39999535  0.28473933  0.00780568    -0.35000
N348        N  0.39951555  0.27957812  0.97952012    -0.29300
C349        C  0.41917254  0.29708727  0.96577543    -0.05400
C350        C  0.43232469  0.31447101  0.98647206     0.06800
C351        C  0.42002614  0.30562804  0.01288923     0.00600
H352        H  0.41996848  0.30059152  0.94230293     0.08300
H353        H  0.42172970  0.31713408  0.03330334     0.07400
N354        N  0.32388520  0.26249848  0.93892090    -0.36500
N355        N  0.29802649  0.26808334  0.95086911    -0.28700
C356        C  0.27838712  0.26988465  0.92836310    -0.03900
C357        C  0.29304349  0.26581666  0.90152312     0.04700
C358        C  0.32167087  0.26106479  0.90965136     0.02800
H359        H  0.25522884  0.27440195  0.93108905     0.07900
H360        H  0.33995375  0.25746319  0.89512277     0.06700
C361        C  0.26509709  0.21642720  0.73595515     0.01900
C362        C  0.27905137  0.23045330  0.76079449     0.01900
C363        C  0.26474576  0.25510641  0.77477876     0.01900
C364        C  0.24108448  0.27039768  0.75942138     0.01900
C365        C  0.22717406  0.25634047  0.73470369     0.01900
C366        C  0.24119601  0.23141707  0.72114635     0.01900
N367        N  0.29467991  0.94610208  0.71433058    -0.27600
N368        N  0.32141180  0.93610548  0.70972967    -0.35500
C369        C  0.32153981  0.90668169  0.71025507     0.00700
C370        C  0.29341898  0.89641284  0.71515105     0.06700
C371        C  0.27684039  0.92223495  0.71783255    -0.06400
H372        H  0.34089265  0.89362239  0.70680434     0.07400
H373        H  0.25344897  0.92338284  0.72180019     0.08600
Cu374      Cu  0.35585540  0.96184724  0.69653180     0.44200
Cu375      Cu  0.28709992  0.99334603  0.71375451     0.42000
Cu376      Cu  0.33166834  0.02644675  0.65741561     0.43900
N377        N  0.37943008  0.98174731  0.66368901    -0.35000
N378        N  0.36982270  0.00424733  0.64794168    -0.29300
C379        C  0.38850335  0.00933512  0.62565149    -0.05400
C380        C  0.41060082  0.98891555  0.62762302     0.06800
C381        C  0.40418468  0.97163998  0.65176747     0.00600
H382        H  0.38560919  0.02595079  0.60863372     0.08300
H383        H  0.41562017  0.95219441  0.65912119     0.07400
N384        N  0.30323454  0.05105918  0.68199854    -0.36500
N385        N  0.28944640  0.04066156  0.70548972    -0.28700
C386        C  0.27970122  0.06421983  0.72050695    -0.03900
C387        C  0.28722981  0.09056194  0.70538286     0.04700
C388        C  0.30160918  0.08047722  0.68076670     0.02800
H389        H  0.26874285  0.06242994  0.74157612     0.07900
H390        H  0.31128170  0.09363135  0.66339437     0.06700
C391        C  0.26386050  0.77021242  0.73546044     0.01900
C392        C  0.23941261  0.75577823  0.72111490     0.01900
C393        C  0.22414487  0.73214733  0.73661003     0.01900
C394        C  0.23761963  0.71781533  0.76206465     0.01900
C395        C  0.26266440  0.73195577  0.77617533     0.01900
C396        C  0.27748279  0.75640198  0.76098049     0.01900
N397        N  0.95316013  0.73570314  0.69883603    -0.27600
N398        N  0.94210384  0.73033178  0.67270081    -0.35500
C399        C  0.91267802  0.73264501  0.67331358     0.00700
C400        C  0.90341482  0.73853753  0.70147043     0.06700
C401        C  0.93004026  0.74064625  0.71703847    -0.06400
H402        H  0.89886852  0.72887952  0.65455817     0.07400
H403        H  0.93223288  0.74445543  0.74024811     0.08600
Cu404      Cu  0.96483603  0.71091792  0.63902161     0.44200
Cu405      Cu  0.00037333  0.73390653  0.70659373     0.42000
Cu406      Cu  0.03009336  0.67690782  0.66381163     0.43900
N407        N  0.98430541  0.67671973  0.61725769    -0.35000
N408        N  0.00824259  0.66393444  0.62726654    -0.29300
C409        C  0.01382862  0.64012311  0.61163494    -0.05400
C410        C  0.99214019  0.63745648  0.59094974     0.06800
C411        C  0.97361924  0.66093539  0.59506661     0.00600
H412        H  0.03114024  0.62463728  0.61645749     0.08300
H413        H  0.95282561  0.66489091  0.58436696     0.07400
N414        N  0.05571495  0.70003813  0.69173036    -0.36500
N415        N  0.04705097  0.72374073  0.70525935    -0.28700
C416        C  0.07169621  0.73686815  0.71577243    -0.03900
C417        C  0.09669230  0.72000850  0.70892103     0.04700
C418        C  0.08482483  0.69672134  0.69409194     0.02800
H419        H  0.07150859  0.75752731  0.72683247     0.07900
H420        H  0.09654100  0.67857786  0.68492750     0.06700
N421        N  0.95741301  0.30034624  0.72986490    -0.27600
N422        N  0.94730350  0.32456312  0.74173363    -0.35500
C423        C  0.91778345  0.32458499  0.74158359     0.00700
C424        C  0.90752812  0.29943141  0.72877122     0.06700
C425        C  0.93348811  0.28434286  0.72181952    -0.06400
H426        H  0.90457468  0.34232989  0.74962584     0.07400
H427        H  0.93471925  0.26336698  0.71119590     0.08600
Cu428      Cu  0.97172812  0.36116260  0.75121778     0.44200
Cu429      Cu  0.00465541  0.29244278  0.72474444     0.42000
Cu430      Cu  0.04476545  0.36004821  0.73051429     0.43900
N431        N  0.99115899  0.39651982  0.73051878    -0.35000
N432        N  0.01862662  0.39520693  0.72158910    -0.29300
C433        C  0.02203081  0.41221913  0.69764992    -0.05400
C434        C  0.99530580  0.42451961  0.69074300     0.06800
C435        C  0.97640492  0.41488908  0.71267300     0.00600
H436        H  0.04092002  0.41129248  0.68327565     0.08300
H437        H  0.95273765  0.41658246  0.71241192     0.07400
N438        N  0.06592537  0.32114093  0.72561999    -0.36500
N439        N  0.05273838  0.29548596  0.72269155    -0.28700
C440        C  0.07443127  0.27538094  0.71911788    -0.03900
C441        C  0.10211722  0.28949967  0.71959162     0.04700
C442        C  0.09519000  0.31837401  0.72388640     0.02800
H443        H  0.07057113  0.25222679  0.71676269     0.07900
H444        H  0.11060081  0.33635256  0.72625391     0.06700
C445        C  0.77921573  0.27317237  0.73259429     0.01900
C446        C  0.76419191  0.24893932  0.71844007     0.01900
C447        C  0.73885628  0.23496761  0.73259603     0.01900
C448        C  0.72510550  0.24908916  0.75737896     0.01900
C449        C  0.74006961  0.27357538  0.77123248     0.01900
C450        C  0.76461634  0.28803644  0.75645487     0.01900
N451        N  0.72117720  0.96414529  0.69868106    -0.27600
N452        N  0.72805344  0.95314013  0.67294652    -0.35500
C453        C  0.73043493  0.92381757  0.67505186     0.00700
C454        C  0.72439716  0.91442574  0.70339246     0.06700
C455        C  0.71882315  0.94094508  0.71788796    -0.06400
H456        H  0.73580009  0.91009200  0.65679199     0.07400
H457        H  0.71309394  0.94300124  0.74077054     0.08600
Cu458      Cu  0.72887711  0.97615129  0.63366215     0.44200
Cu459      Cu  0.71553500  0.01172940  0.70380016     0.42000
Cu460      Cu  0.70761200  0.04926530  0.63276521     0.43900
N461        N  0.70985502  0.99531409  0.59730142    -0.35000
N462        N  0.70007016  0.02239330  0.59758395    -0.29300
C463        C  0.68033778  0.02593429  0.57599905    -0.05400
C464        C  0.67757104  0.99972227  0.56148856     0.06800
C465        C  0.69688714  0.98091630  0.57541953     0.00600
H466        H  0.66618515  0.04471191  0.57364295     0.08300
H467        H  0.69781405  0.95745871  0.57290707     0.07400
N468        N  0.71308246  0.07177015  0.67128443    -0.36500
N469        N  0.71375555  0.05972196  0.69783758    -0.28700
C470        C  0.71470324  0.08225587  0.71705694    -0.03900
C471        C  0.71541465  0.10959341  0.70179570     0.04700
C472        C  0.71475285  0.10111631  0.67281237     0.02800
H473        H  0.71469781  0.07895299  0.74064247     0.07900
H474        H  0.71584815  0.11534659  0.65376342     0.06700
C475        C  0.73939768  0.78858291  0.73988836     0.01900
C476        C  0.76406529  0.77427546  0.72613096     0.01900
C477        C  0.77852058  0.74991109  0.74082931     0.01900
C478        C  0.76402667  0.73513672  0.76565836     0.01900
C479        C  0.73850899  0.74890175  0.77914334     0.01900
C480        C  0.72446979  0.77376410  0.76420778     0.01900
N481        N  0.28119740  0.69894582  0.04793459    -0.27600
N482        N  0.27539872  0.67291472  0.05985192    -0.35500
C483        C  0.27183764  0.67493820  0.08899535     0.00700
C484        C  0.27621724  0.70352102  0.09756719     0.06700
C485        C  0.28208595  0.71821803  0.07049354    -0.06400
H486        H  0.26641511  0.65641572  0.10317774     0.07400
H487        H  0.28687712  0.74128531  0.06755518     0.08600
Cu488      Cu  0.27705340  0.63368473  0.03828671     0.44200
Cu489      Cu  0.28639470  0.70406518  0.99989793     0.42000
Cu490      Cu  0.29605873  0.63316340  0.96424004     0.43900
N491        N  0.29434797  0.59709397  0.01909781    -0.35000
N492        N  0.30178656  0.59700900  0.99120370    -0.29300
C493        C  0.32002719  0.57459464  0.98658610    -0.05400
C494        C  0.32463682  0.56002426  0.01299120     0.06800
C495        C  0.30782470  0.57483492  0.03309123     0.00600
H496        H  0.33275768  0.57212888  0.96684904     0.08300
H497        H  0.30928721  0.57267681  0.05662088     0.07400
N498        N  0.29268972  0.67192417  0.94071547    -0.36500
N499        N  0.28913650  0.69820322  0.95195456    -0.28700
C500        C  0.28662772  0.71731554  0.92872684    -0.03900
C501        C  0.28874767  0.70216698  0.90203015     0.04700
C502        C  0.29256093  0.67353152  0.91125506     0.02800
H503        H  0.28282031  0.74053364  0.93091383     0.07900
H504        H  0.29393673  0.65469376  0.89734263     0.06700
N505        N  0.73264016  0.28216825  0.04240011    -0.27600
N506        N  0.71603960  0.30133271  0.05606650    -0.35500
C507        C  0.71750457  0.29688890  0.08520093     0.00700
C508        C  0.73604512  0.27389788  0.09119499     0.06700
C509        C  0.74544297  0.26489574  0.06343271    -0.06400
H510        H  0.70623112  0.30996046  0.10106265     0.07400
H511        H  0.76025916  0.24749248  0.05907852     0.08600
Cu512      Cu  0.69347510  0.33547289  0.03641933     0.44200
Cu513      Cu  0.73580837  0.28275206  0.99478265     0.42000
Cu514      Cu  0.71920901  0.35564957  0.96678837     0.43900
N515        N  0.67891366  0.37249978  0.01440867    -0.35000
N516        N  0.68999908  0.38086462  0.98889190    -0.29300
C517        C  0.67465731  0.40359737  0.97810712    -0.05400
C518        C  0.65282608  0.40981928  0.99796379     0.06800
C519        C  0.65619686  0.38982577  0.02079237     0.00600
H520        H  0.67761581  0.41314991  0.95653717     0.08300
H521        H  0.64191726  0.38681429  0.03960187     0.07400
N522        N  0.72878826  0.32181774  0.93977762    -0.36500
N523        N  0.73338697  0.29442659  0.94837302    -0.28700
C524        C  0.73490781  0.27820826  0.92368427    -0.03900
C525        C  0.73074426  0.29650261  0.89885600     0.04700
C526        C  0.72722065  0.32385559  0.91044118     0.02800
H527        H  0.73849146  0.25498138  0.92362215     0.07900
H528        H  0.72336573  0.34402040  0.89835973     0.06700
N529        N  0.70288985  0.72849323  0.05039106    -0.27600
N530        N  0.67598892  0.72404878  0.06040697    -0.35500
C531        C  0.67526155  0.72630804  0.08968022     0.00700
C532        C  0.70327461  0.73129920  0.10018042     0.06700
C533        C  0.72030738  0.73278302  0.07420769    -0.06400
H534        H  0.65552832  0.72327108  0.10256055     0.07400
H535        H  0.74388888  0.73568555  0.07287700     0.08600
Cu536      Cu  0.64301800  0.70554406  0.03633704     0.44200
Cu537      Cu  0.71107359  0.72661966  0.00320892     0.42000
Cu538      Cu  0.66535095  0.67035523  0.97049949     0.43900
N539        N  0.62108367  0.67020579  0.01959010    -0.35000
N540        N  0.62969280  0.65616227  0.99607358    -0.29300
C541        C  0.61192761  0.63281458  0.99254016    -0.05400
C542        C  0.59161052  0.63215085  0.01520433     0.06800
C543        C  0.59805253  0.65615818  0.03186048     0.00600
H544        H  0.61373086  0.61739813  0.97496053     0.08300
H545        H  0.58707438  0.66273699  0.05167729     0.07400
N546        N  0.69498652  0.69585561  0.94586684    -0.36500
N547        N  0.70935629  0.71873396  0.95607870    -0.28700
C548        C  0.72060284  0.73380107  0.93246524    -0.03900
C549        C  0.71353648  0.71938328  0.90620720     0.04700
C550        C  0.69788990  0.69503282  0.91651239     0.02800
H551        H  0.73214959  0.75438427  0.93416147     0.07900
H552        H  0.68827413  0.67804562  0.90343432     0.06700
N553        N  0.54532199  0.22384187  0.23279571    -0.27600
N554        N  0.55860363  0.19820145  0.23139952    -0.35500
C555        C  0.58782396  0.20194930  0.23068477     0.00700
C556        C  0.59412031  0.23135279  0.23163699     0.06700
C557        C  0.56663688  0.24479665  0.23325528    -0.06400
H558        H  0.60348796  0.18431509  0.22954675     0.07400
H559        H  0.56257904  0.26799656  0.23490903     0.08600
Cu560      Cu  0.53853905  0.15824221  0.22718063     0.44200
Cu561      Cu  0.49808341  0.22709142  0.23356883     0.42000
Cu562      Cu  0.46413343  0.15635676  0.21547495     0.43900
N563        N  0.51935988  0.12467950  0.20506478    -0.35000
N564        N  0.49106455  0.12458556  0.19927827    -0.29300
C565        C  0.48583855  0.10618662  0.17729297    -0.05400
C566        C  0.51230646  0.09429570  0.16890598     0.06800
C567        C  0.53306742  0.10631635  0.18710205     0.00600
H568        H  0.46508724  0.10442088  0.16588365     0.08300
H569        H  0.55658460  0.10499343  0.18468585     0.07400
N570        N  0.44067851  0.19248351  0.22746835    -0.36500
N571        N  0.45140037  0.21880279  0.23307140    -0.28700
C572        C  0.42815682  0.23692700  0.23685547    -0.03900
C573        C  0.40208397  0.22091428  0.23336514     0.04700
C574        C  0.41128992  0.19299811  0.22768445     0.02800
H575        H  0.42997946  0.26010726  0.24081246     0.07900
H576        H  0.39744579  0.17443055  0.22267194     0.06700
N577        N  0.21329570  0.54821537  0.20697108    -0.27600
N578        N  0.19174999  0.55632943  0.18940885    -0.35500
C579        C  0.18727799  0.58527895  0.19118870     0.00700
C580        C  0.20769127  0.59737179  0.20993709     0.06700
C581        C  0.22382984  0.57282987  0.21967533    -0.06400
H582        H  0.17063111  0.59683497  0.17882500     0.07400
H583        H  0.24252847  0.57305505  0.23431069     0.08600
Cu584      Cu  0.17390480  0.52938339  0.15846188     0.44200
Cu585      Cu  0.22524066  0.50242021  0.20998464     0.42000
Cu586      Cu  0.22196397  0.47099255  0.13835848     0.43900
N587        N  0.16760739  0.50349618  0.12256904    -0.35000
N588        N  0.18609198  0.48308090  0.11425121    -0.29300
C589        C  0.17454819  0.46864686  0.09163526    -0.05400
C590        C  0.14775894  0.48098361  0.08540464     0.06800
C591        C  0.14397846  0.50299682  0.10521235     0.00600
H592        H  0.18416171  0.44966237  0.08164752     0.08300
H593        H  0.12495550  0.51678236  0.10761779     0.07400
N594        N  0.23215961  0.44651678  0.17476933    -0.36500
N595        N  0.23048763  0.45613341  0.20184450    -0.28700
C596        C  0.23067310  0.43220534  0.22000672    -0.03900
C597        C  0.23240828  0.40670476  0.20329550     0.04700
C598        C  0.23366850  0.41716217  0.17484118     0.02800
H599        H  0.22868073  0.43307730  0.24357389     0.07900
H600        H  0.23404586  0.40421110  0.15526308     0.06700
N601        N  0.22893049  0.20560369  0.45218302    -0.27600
N602        N  0.21839651  0.18178550  0.43982531    -0.35500
C603        C  0.21825426  0.18513640  0.41053804     0.00700
C604        C  0.22920711  0.21243830  0.40314302     0.06700
C605        C  0.23601034  0.22493430  0.43018168    -0.06400
H606        H  0.21151144  0.16835032  0.39551374     0.07400
H607        H  0.24607754  0.24605036  0.43341010     0.08600
Cu608      Cu  0.20620852  0.14417948  0.46217001     0.44200
Cu609      Cu  0.23284256  0.20763134  0.49941751     0.42000
Cu610      Cu  0.22906736  0.13435427  0.53495073     0.43900
N611        N  0.19391488  0.10853289  0.48747323    -0.35000
N612        N  0.20335947  0.10405465  0.51443000    -0.29300
C613        C  0.18589443  0.08420720  0.52796153    -0.05400
C614        C  0.16417608  0.07626651  0.50855887     0.06800
C615        C  0.17024364  0.09172535  0.48301036     0.00600
H616        H  0.18610496  0.07965087  0.55121871     0.08300
H617        H  0.15596200  0.09395167  0.46425702     0.07400
N618        N  0.23318865  0.17244801  0.55777414    -0.36500
N619        N  0.23292369  0.19929931  0.54633620    -0.28700
C620        C  0.23170444  0.21809780  0.56903018    -0.03900
C621        C  0.23097703  0.20212538  0.59561801     0.04700
C622        C  0.23217252  0.17337637  0.58714942     0.02800
H623        H  0.23107274  0.24164046  0.56649633     0.07900
H624        H  0.23182114  0.15425686  0.60141288     0.06700
O625        O  0.97177019  0.07094277  0.52550887    -0.73300
O626        O  0.99923531  0.98846485  0.53888789    -0.74300
O627        O  0.02681640  0.04328129  0.53656491    -0.62900
O628        O  0.94398682  0.01528016  0.52737155    -0.71300
O629        O  0.95102414  0.01205192  0.47984972    -0.70900
O630        O  0.03290082  0.03974444  0.48855689    -0.62100
O631        O  0.00565160  0.98471883  0.49093096    -0.74600
O632        O  0.97869158  0.06735292  0.47759050    -0.73400
Cu633      Cu  0.98504959  0.02980027  0.53377010     1.04600
Cu634      Cu  0.99220262  0.02589020  0.48260191     1.04300
C635        C  0.97088750  0.08211900  0.49968164     0.92900
C636        C  0.00776657  0.97395839  0.51686649     0.92000
C637        C  0.04325391  0.04459880  0.51389693     0.84200
C638        C  0.93431071  0.00890775  0.50205517     0.90500
O639        O  0.53942053  0.00404600  0.96154132    -0.73300
O640        O  0.54760078  0.03795512  0.04190792    -0.74300
O641        O  0.54263511  0.98112656  0.01902665    -0.62900
O642        O  0.54505674  0.06213315  0.98441012    -0.71300
O643        O  0.49663971  0.06478236  0.98820081    -0.70900
O644        O  0.49415973  0.98412478  0.02216780    -0.62100
O645        O  0.49897817  0.04014125  0.04482091    -0.74600
O646        O  0.49152990  0.00844116  0.96536924    -0.73400
Cu647      Cu  0.54549263  0.02134797  0.00142657     1.04600
Cu648      Cu  0.49375146  0.02453264  0.00512814     1.04300
C649        C  0.51374431  0.99978474  0.95116722     0.92900
C650        C  0.52421435  0.04371837  0.05613393     0.92000
C651        C  0.51790589  0.97008483  0.02651979     0.84200
C652        C  0.52125144  0.07647416  0.98141751     0.90500
O653        O  0.97487813  0.45178770  0.03466656    -0.73300
O654        O  0.00874555  0.43160024  0.95602325    -0.74300
O655        O  0.03204786  0.43943488  0.01260755    -0.62900
O656        O  0.95179426  0.44385588  0.97755268    -0.71300
O657        O  0.95877214  0.49118182  0.96831332    -0.70900
O658        O  0.03754470  0.48705776  0.00494220    -0.62100
O659        O  0.01595616  0.47919954  0.94786656    -0.74600
O660        O  0.98065713  0.49927995  0.02485190    -0.73400
Cu661      Cu  0.99161272  0.43995282  0.99561080     1.04600
Cu662      Cu  0.99852862  0.49075757  0.98607119     1.04300
C663        C  0.97204967  0.47854635  0.04187148     0.92900
C664        C  0.01795129  0.45271267  0.93973362     0.92000
C665        C  0.04747147  0.46270558  0.01455458     0.84200
C666        C  0.94259511  0.46833993  0.96743492     0.90500
O667        O  0.47686954  0.43850864  0.02252272    -0.73300
O668        O  0.50562021  0.51922591  0.04274581    -0.74300
O669        O  0.44942650  0.49135916  0.04072513    -0.62900
O670        O  0.53213139  0.46629986  0.02557965    -0.71300
O671        O  0.52831573  0.47903842  0.97863493    -0.70900
O672        O  0.44591952  0.50488064  0.99391157    -0.62100
O673        O  0.50225006  0.53132930  0.99587306    -0.74600
O674        O  0.47289370  0.45209767  0.97581791    -0.73400
Cu675      Cu  0.49100742  0.47832862  0.03458317     1.04600
Cu676      Cu  0.48700367  0.49235222  0.98451806     1.04300
C677        C  0.47127059  0.43241481  0.99588319     0.92900
C678        C  0.50941519  0.53792713  0.02190855     0.92000
C679        C  0.43487239  0.50263640  0.01960097     0.84200
C680        C  0.54318426  0.46846071  0.99991048     0.90500
O681        O  0.00998767  0.49100261  0.47471563    -0.73300
O682        O  0.00811777  0.45636024  0.55516495    -0.74300
O683        O  0.00973585  0.43300060  0.49755926    -0.62900
O684        O  0.00812930  0.51331825  0.53149452    -0.71300
O685        O  0.95952217  0.51327677  0.53001912    -0.70900
O686        O  0.96105164  0.43302193  0.49651614    -0.62100
O687        O  0.95943160  0.45659820  0.55474924    -0.74600
O688        O  0.96182940  0.49132841  0.47336524    -0.73400
Cu689      Cu  0.01064164  0.47317218  0.51477441     1.04600
Cu690      Cu  0.95874072  0.47318492  0.51360681     1.04300
C691        C  0.98642481  0.49805625  0.46153790     0.92900
C692        C  0.98362469  0.45297973  0.56839641     0.92000
C693        C  0.98547696  0.42080980  0.49074425     0.84200
C694        C  0.98367708  0.52605565  0.53589032     0.90500
O695        O  0.55620689  0.95692908  0.49597711    -0.73300
O696        O  0.47377833  0.95936289  0.46537701    -0.74300
O697        O  0.52949094  0.95998242  0.43966956    -0.62900
O698        O  0.49934069  0.95554878  0.52118776    -0.71300
O699        O  0.49819380  0.00406226  0.52231155    -0.70900
O700        O  0.53157184  0.00844155  0.44198961    -0.62100
O701        O  0.47529971  0.00793404  0.46591921    -0.74600
O702        O  0.55579253  0.00543229  0.49861690    -0.73400
Cu703      Cu  0.51488244  0.95620013  0.48055802     1.04600
Cu704      Cu  0.51545001  0.00814066  0.48238019     1.04300
C705        C  0.56878054  0.98104291  0.50238315     0.92900
C706        C  0.46180104  0.98417314  0.46048653     0.92000
C707        C  0.53442880  0.98492843  0.42766923     0.84200
C708        C  0.49216583  0.97907481  0.53382539     0.90500
C709        C  0.08525477  0.07399903  0.53319575    -0.02200
C710        C  0.07486365  0.05039104  0.51665053     0.07500
C711        C  0.09486806  0.03259508  0.50149185    -0.02300
C712        C  0.12472586  0.03998850  0.50073999    -0.02300
C713        C  0.13487001  0.06460929  0.51568938     0.07600
C714        C  0.11533618  0.08097456  0.53292716    -0.02500
Br715      Br  0.12893750  0.11461817  0.55413771    -0.01100
Br716      Br  0.05819037  0.09872281  0.55380104    -0.01100
Br717      Br  0.15178677  0.01702519  0.47823377    -0.01100
Br718      Br  0.08179421  0.99787791  0.48157674    -0.01100
C719        C  0.12324914  0.48690506  0.03769693    -0.02200
C720        C  0.12595500  0.47136778  0.06423212     0.07500
C721        C  0.10567875  0.44930300  0.07205173    -0.02300
C722        C  0.08131792  0.44402778  0.05408199    -0.02300
C723        C  0.07648363  0.46221008  0.02905397     0.07600
C724        C  0.09846719  0.48266103  0.02016469    -0.02500
Br725      Br  0.09517876  0.50569286  0.98438850    -0.01100
Br726      Br  0.15305694  0.51518326  0.02634826    -0.01100
Br727      Br  0.05426067  0.41311642  0.06565665    -0.01100
Br728      Br  0.11008444  0.42811453  0.10875881    -0.01100
C729        C  0.53224682  0.09615234  0.11793698    -0.02200
C730        C  0.51816684  0.08028101  0.14084102     0.07500
C731        C  0.50861663  0.05140317  0.13651573    -0.02300
C732        C  0.51169009  0.03887624  0.10889094    -0.02300
C733        C  0.52562283  0.05476740  0.08597407     0.07600
C734        C  0.53694779  0.08293999  0.09083709    -0.02500
Br735      Br  0.55725114  0.10410845  0.05983388    -0.01100
Br736      Br  0.54244446  0.13689583  0.12244147    -0.01100
Br737      Br  0.49630434  0.00009842  0.10239133    -0.01100
Br738      Br  0.49110926  0.02918240  0.16843491    -0.01100
C739        C  0.56825500  0.59140702  0.04470367    -0.02200
C740        C  0.56762738  0.61078167  0.02033822     0.07500
C741        C  0.54344723  0.61045539  0.00134594    -0.02300
C742        C  0.52148839  0.58898641  0.00490604    -0.02300
C743        C  0.52446411  0.56655552  0.02647588     0.07600
C744        C  0.54630181  0.56971516  0.04824693    -0.02500
Br745      Br  0.54641683  0.54538016  0.08328541    -0.01100
Br746      Br  0.60043398  0.59315371  0.07202524    -0.01100
Br747      Br  0.48671460  0.59141667  0.98085142    -0.01100
Br748      Br  0.54056099  0.63929200  0.97010173    -0.01100
C749        C  0.59604692  0.46663939  0.01361231    -0.02200
C750        C  0.57317088  0.45774872  0.99500994     0.07500
C751        C  0.57855919  0.43657558  0.97359024    -0.02300
C752        C  0.60592879  0.42258189  0.97265378    -0.02300
C753        C  0.62747752  0.42914689  0.99369013     0.07600
C754        C  0.62306134  0.45213509  0.01315697    -0.02500
Br755      Br  0.65420343  0.46365256  0.03916215    -0.01100
Br756      Br  0.59065936  0.49897209  0.03943104    -0.01100
Br757      Br  0.61299027  0.39321775  0.94367633    -0.01100
Br758      Br  0.54780795  0.42455983  0.94728253    -0.01100
C759        C  0.37995402  0.49907624  0.02153111    -0.02200
C760        C  0.40591039  0.51551841  0.02488602     0.07500
C761        C  0.40435777  0.54576892  0.02944118    -0.02300
C762        C  0.37760943  0.56034590  0.02594587    -0.02300
C763        C  0.35185604  0.54425076  0.02005600     0.07600
C764        C  0.35276317  0.51348440  0.01945729    -0.02500
Br765      Br  0.31692543  0.49143468  0.01510388    -0.01100
Br766      Br  0.38177304  0.45709759  0.02016382    -0.01100
Br767      Br  0.37685970  0.60254726  0.02741993    -0.01100
Br768      Br  0.43893209  0.56706168  0.04099365    -0.01100
C769        C  0.75034326  0.74984827  0.83451037    -0.02200
C770        C  0.73094676  0.74127569  0.81172797     0.07500
C771        C  0.70483081  0.72663484  0.82126512    -0.02300
C772        C  0.69824069  0.72216988  0.85166002    -0.02300
C773        C  0.71926668  0.72796343  0.87388047     0.07600
C774        C  0.74579624  0.74142489  0.86443346    -0.02500
Br775      Br  0.77733562  0.74724185  0.89188346    -0.01100
Br776      Br  0.78187179  0.77649946  0.82617116    -0.01100
Br777      Br  0.65853690  0.71103000  0.86226924    -0.01100
Br778      Br  0.67756293  0.71079071  0.79391281    -0.01100
C779        C  0.62146912  0.99581919  0.50080976    -0.02200
C780        C  0.59820475  0.98118702  0.51537219     0.07500
C781        C  0.60207401  0.97001686  0.54398499    -0.02300
C782        C  0.62864060  0.97491246  0.55868352    -0.02300
C783        C  0.65147370  0.99092063  0.54466678     0.07600
C784        C  0.64816150  0.00056044  0.51542598    -0.02500
Br785      Br  0.68014091  0.02043719  0.49559857    -0.01100
Br786      Br  0.61648358  0.00961925  0.46095735    -0.01100
Br787      Br  0.63261162  0.96142507  0.59879205    -0.01100
Br788      Br  0.56999512  0.95029871  0.56401933    -0.01100
C789        C  0.74157699  0.87442218  0.73936265    -0.02200
C790        C  0.72510409  0.88259763  0.71449442     0.07500
C791        C  0.71170663  0.85963966  0.69861214    -0.02300
C792        C  0.71593563  0.82951003  0.70652505    -0.02300
C793        C  0.73225141  0.82101818  0.73177435     0.07600
C794        C  0.74426697  0.84447416  0.74834347    -0.02500
Br795      Br  0.76798341  0.83661169  0.78195752    -0.01100
Br796      Br  0.76386092  0.90416552  0.75929116    -0.01100
Br797      Br  0.70002677  0.80046044  0.68122442    -0.01100
Br798      Br  0.68631703  0.86930778  0.66609276    -0.01100
C799        C  0.75799318  0.27033813  0.82440616    -0.02200
C800        C  0.73596054  0.27954153  0.80416386     0.07500
C801        C  0.71117105  0.29376504  0.81635308    -0.02300
C802        C  0.70900277  0.29844723  0.84713031    -0.02300
C803        C  0.73176187  0.28983911  0.86655395     0.07600
C804        C  0.75659960  0.27660680  0.85457951    -0.02500
Br805      Br  0.79016772  0.26881509  0.87933945    -0.01100
Br806      Br  0.78885867  0.24517399  0.81287638    -0.01100
Br807      Br  0.67413937  0.31619463  0.86284307    -0.01100
Br808      Br  0.67940256  0.30682946  0.79203357    -0.01100
C809        C  0.71289541  0.19474482  0.70101000    -0.02200
C810        C  0.73015196  0.20285256  0.72552668     0.07500
C811        C  0.74022238  0.17911708  0.74358039    -0.02300
C812        C  0.73580915  0.14920441  0.73615725    -0.02300
C813        C  0.71816420  0.14138767  0.71208759     0.07600
C814        C  0.70513536  0.16490834  0.69599285    -0.02500
Br815      Br  0.67390413  0.15700252  0.66863757    -0.01100
Br816      Br  0.70105647  0.22312085  0.67202144    -0.01100
Br817      Br  0.75666649  0.11933176  0.75801983    -0.01100
Br818      Br  0.76326241  0.18636343  0.77750280    -0.01100
C819        C  0.96883614  0.41766636  0.64293660    -0.02200
C820        C  0.98770795  0.43445407  0.66078103     0.07500
C821        C  0.00326523  0.45835491  0.64848709    -0.02300
C822        C  0.00106332  0.46485719  0.61845802    -0.02300
C823        C  0.98373126  0.44703153  0.60025808     0.07600
C824        C  0.96690724  0.42402418  0.61270834    -0.02500
Br825      Br  0.94293526  0.39975203  0.58804750    -0.01100
Br826      Br  0.94733538  0.38431576  0.65866642    -0.01100
Br827      Br  0.02135187  0.49897336  0.60276964    -0.01100
Br828      Br  0.02818879  0.48200297  0.67291402    -0.01100
C829        C  0.86444674  0.26472223  0.73729545    -0.02200
C830        C  0.87534919  0.29114749  0.72531258     0.07500
C831        C  0.85475481  0.31087752  0.71278645    -0.02300
C832        C  0.82389225  0.30493208  0.71363516    -0.02300
C833        C  0.81245304  0.27868970  0.72674551     0.07600
C834        C  0.83386361  0.25833940  0.73737009    -0.02500
Br835      Br  0.82278466  0.22179784  0.75471245    -0.01100
Br836      Br  0.89139345  0.23836496  0.75701803    -0.01100
Br837      Br  0.79813442  0.33348277  0.69645242    -0.01100
Br838      Br  0.86899160  0.34625145  0.69364618    -0.01100
C839        C  0.96556185  0.59043340  0.58376683    -0.02200
C840        C  0.98675878  0.61097341  0.57402223     0.07500
C841        C  0.00550732  0.60438416  0.55060228    -0.02300
C842        C  0.00320214  0.57721591  0.53692766    -0.02300
C843        C  0.98346221  0.55575979  0.54797981     0.07600
C844        C  0.96432635  0.56259465  0.57124426    -0.02500
Br845      Br  0.93816316  0.53331551  0.58802031    -0.01100
Br846      Br  0.93958066  0.59964715  0.61574024    -0.01100
Br847      Br  0.02633697  0.57009139  0.50231236    -0.01100
Br848      Br  0.03490012  0.63241442  0.53777406    -0.01100
C849        C  0.85009723  0.71913281  0.70455384    -0.02200
C850        C  0.87170962  0.74027349  0.71221000     0.07500
C851        C  0.86258991  0.76339132  0.72998136    -0.02300
C852        C  0.83316783  0.76511675  0.74021137    -0.02300
C853        C  0.81105790  0.74440798  0.73247206     0.07600
C854        C  0.82062296  0.72068200  0.71520284    -0.02500
Br855      Br  0.79486855  0.68844670  0.70728694    -0.01100
Br856      Br  0.86035669  0.68720736  0.67939215    -0.01100
Br857      Br  0.82496701  0.79484888  0.76776814    -0.01100
Br858      Br  0.88995909  0.79461137  0.73854176    -0.01100
C859        C  0.25244678  0.73426053  0.83223880    -0.02200
C860        C  0.27023485  0.72418714  0.80863848     0.07500
C861        C  0.29575009  0.70842348  0.81714476    -0.02300
C862        C  0.30286263  0.70337227  0.84734995    -0.02300
C863        C  0.28371206  0.71183765  0.87025014     0.07600
C864        C  0.25824256  0.72706561  0.86207578    -0.02500
Br865      Br  0.23013644  0.73748124  0.89192194    -0.01100
Br866      Br  0.22217421  0.76203878  0.82599485    -0.01100
Br867      Br  0.34024141  0.68646537  0.85746642    -0.01100
Br868      Br  0.32135094  0.69290745  0.78799316    -0.01100
C869        C  0.13892793  0.73743043  0.74128446    -0.02200
C870        C  0.12920639  0.72419111  0.71545530     0.07500
C871        C  0.15135469  0.71322450  0.69661014    -0.02300
C872        C  0.18102703  0.71116403  0.70595447    -0.02300
C873        C  0.19128281  0.72749087  0.72992675     0.07600
C874        C  0.16924201  0.74240253  0.74590068    -0.02500
Br875      Br  0.17850863  0.77324786  0.77143343    -0.01100
Br876      Br  0.11163472  0.74756078  0.77185058    -0.01100
Br877      Br  0.20541695  0.68286425  0.68765728    -0.01100
Br878      Br  0.14316028  0.70572326  0.65601811    -0.01100
C879        C  0.45944635  0.00000203  0.60610990    -0.02200
C880        C  0.43328833  0.98363043  0.60577529     0.07500
C881        C  0.42819373  0.96300673  0.58391684    -0.02300
C882        C  0.44853223  0.96006708  0.56112120    -0.02300
C883        C  0.47425031  0.97760833  0.56054563     0.07600
C884        C  0.48013169  0.99680233  0.58363687    -0.02500
Br885      Br  0.51651383  0.01861129  0.58464086    -0.01100
Br886      Br  0.46640116  0.02732800  0.63703322    -0.01100
Br887      Br  0.43912561  0.93401071  0.52953476    -0.01100
Br888      Br  0.39242705  0.94003451  0.58432432    -0.01100
C889        C  0.28699761  0.81266847  0.70319909    -0.02200
C890        C  0.27131200  0.80271460  0.72849795     0.07500
C891        C  0.26224862  0.82482217  0.74813732    -0.02300
C892        C  0.26991702  0.85468933  0.74409773    -0.02300
C893        C  0.28468067  0.86445848  0.71874463     0.07600
C894        C  0.29292920  0.84311037  0.69811250    -0.02500
Br895      Br  0.31157530  0.85563737  0.66196231    -0.01100
Br896      Br  0.30118422  0.78551858  0.67507496    -0.01100
Br897      Br  0.26175636  0.88210591  0.77483340    -0.01100
Br898      Br  0.23596417  0.81619795  0.77944846    -0.01100
C899        C  0.25638428  0.23639136  0.66705483    -0.02200
C900        C  0.23620127  0.22520461  0.68847143     0.07500
C901        C  0.21238304  0.20826506  0.67781441    -0.02300
C902        C  0.21010490  0.20159644  0.64752862    -0.02300
C903        C  0.23103389  0.21222175  0.62687678     0.07600
C904        C  0.25375302  0.23023961  0.63691884    -0.02500
Br905      Br  0.28258206  0.24558059  0.60932510    -0.01100
Br906      Br  0.28783095  0.26158511  0.67749093    -0.01100
Br907      Br  0.17735134  0.17854117  0.63400200    -0.01100
Br908      Br  0.18208575  0.19409513  0.70366373    -0.01100
C909        C  0.17205782  0.25158738  0.74651591    -0.02200
C910        C  0.19469172  0.26343358  0.72811402     0.07500
C911        C  0.18532014  0.28160301  0.70436856    -0.02300
C912        C  0.15514835  0.28925027  0.70093651    -0.02300
C913        C  0.13315327  0.27773888  0.72003590     0.07600
C914        C  0.14196605  0.25806226  0.74221264    -0.02500
Br915      Br  0.11266598  0.24079100  0.76806996    -0.01100
Br916      Br  0.18088832  0.22510520  0.77776890    -0.01100
Br917      Br  0.14368987  0.31530000  0.66931028    -0.01100
Br918      Br  0.21282670  0.29584907  0.67557150    -0.01100
C919        C  0.29802911  0.17519097  0.71343206    -0.02200
C920        C  0.27188660  0.18412201  0.72778493     0.07500
C921        C  0.25160214  0.16107750  0.73494144    -0.02300
C922        C  0.25573512  0.13166663  0.72618158    -0.02300
C923        C  0.28229677  0.12268345  0.71337594     0.07600
C924        C  0.30375987  0.14499469  0.70781088    -0.02500
Br925      Br  0.34257968  0.13460453  0.69463125    -0.01100
Br926      Br  0.32673191  0.20358883  0.70068746    -0.01100
Br927      Br  0.22350825  0.10410894  0.73048245    -0.01100
Br928      Br  0.21957286  0.16729044  0.76082710    -0.01100
C929        C  0.47303236  0.34982085  0.99307542    -0.02200
C930        C  0.44513173  0.34382624  0.98162327     0.07500
C931        C  0.42766466  0.36695794  0.97059646    -0.02300
C932        C  0.43753119  0.39604538  0.97279672    -0.02300
C933        C  0.46353924  0.40212579  0.98826897     0.07600
C934        C  0.48192451  0.37891026  0.99724440    -0.02500
Br935      Br  0.51938883  0.38671273  0.01519211    -0.01100
Br936      Br  0.49869005  0.31788968  0.00343996    -0.01100
Br937      Br  0.41449753  0.42732988  0.95585124    -0.01100
Br938      Br  0.38890548  0.35950782  0.95526424    -0.01100
C939        C  0.29100783  0.28764169  0.84976624    -0.02200
C940        C  0.28233073  0.26560123  0.87018250     0.07500
C941        C  0.26726715  0.24120475  0.85954315    -0.02300
C942        C  0.26107780  0.23872203  0.82922660    -0.02300
C943        C  0.27067737  0.26001260  0.80784432     0.07600
C944        C  0.28542162  0.28501045  0.81912735    -0.02500
Br945      Br  0.29886886  0.31618466  0.79376792    -0.01100
Br946      Br  0.31060629  0.32192680  0.86437251    -0.01100
Br947      Br  0.23711792  0.20639779  0.81875069    -0.01100
Br948      Br  0.25611198  0.21024584  0.88692149    -0.01100
C949        C  0.01468516  0.55347154  0.40474659    -0.02200
C950        C  0.98812151  0.56338190  0.39245853     0.07500
C951        C  0.96205298  0.54758535  0.39808593    -0.02300
C952        C  0.96157112  0.52457195  0.41900579    -0.02300
C953        C  0.98770971  0.51646034  0.43399398     0.07600
C954        C  0.01471865  0.52945679  0.42451596    -0.02500
Br955      Br  0.05260039  0.51534424  0.43768876    -0.01100
Br956      Br  0.05115273  0.57409383  0.39670644    -0.01100
Br957      Br  0.92446903  0.50473570  0.42595321    -0.01100
Br958      Br  0.92691832  0.55697860  0.37625268    -0.01100
C959        C  0.74059133  0.75454261  0.17247556    -0.02200
C960        C  0.72287681  0.74120679  0.19490633     0.07500
C961        C  0.69982002  0.72283640  0.18479161    -0.02300
C962        C  0.69673174  0.71653354  0.15449769    -0.02300
C963        C  0.71162585  0.73337072  0.13251725     0.07600
C964        C  0.73311499  0.75321375  0.14229386    -0.02500
Br965      Br  0.75095345  0.78085729  0.11503422    -0.01100
Br966      Br  0.77648708  0.77387517  0.18144932    -0.01100
Br967      Br  0.67457163  0.68208356  0.14402934    -0.01100
Br968      Br  0.67022502  0.70719403  0.21052829    -0.01100
C969        C  0.80550334  0.71365433  0.29311156    -0.02200
C970        C  0.79747431  0.74042951  0.27886436     0.07500
C971        C  0.82101649  0.76032569  0.27269859    -0.02300
C972        C  0.85000589  0.75538884  0.28276403    -0.02300
C973        C  0.85827039  0.72800864  0.29467388     0.07600
C974        C  0.83551570  0.70686333  0.29905386    -0.02500
Br975      Br  0.84509543  0.66717917  0.31067345    -0.01100
Br976      Br  0.77647103  0.68512129  0.30466702    -0.01100
Br977      Br  0.87792170  0.78739266  0.28115285    -0.01100
Br978      Br  0.81669506  0.79120513  0.24437096    -0.01100
C979        C  0.53873270  0.01149620  0.34929758    -0.02200
C980        C  0.56322327  0.99598687  0.33927175     0.07500
C981        C  0.57701322  0.97505959  0.35780945    -0.02300
C982        C  0.56639522  0.97007701  0.38632953    -0.02300
C983        C  0.54294188  0.98687641  0.39676443     0.07600
C984        C  0.52837327  0.00674149  0.37789383    -0.02500
Br985      Br  0.49373132  0.02708993  0.39080600    -0.01100
Br986      Br  0.52038080  0.04056914  0.32430597    -0.01100
Br987      Br  0.58558190  0.94173968  0.41166472    -0.01100
Br988      Br  0.61278904  0.95577467  0.34628495    -0.01100
C989        C  0.70122940  0.86248202  0.29609700    -0.02200
C990        C  0.71648931  0.88296226  0.27787342     0.07500
C991        C  0.73544058  0.87191221  0.25663957    -0.02300
C992        C  0.73723747  0.84137357  0.25193142    -0.02300
C993        C  0.72224423  0.82016618  0.26993754     0.07600
C994        C  0.70455430  0.83159132  0.29269216    -0.02500
Br995      Br  0.68424250  0.80563622  0.31936389    -0.01100
Br996      Br  0.67657980  0.87711881  0.32684499    -0.01100
Br997      Br  0.76138673  0.83010482  0.22031702    -0.01100
Br998      Br  0.75915904  0.89904790  0.23351140    -0.01100
C999        C  0.64034259  0.25325560  0.20903838    -0.02200
C1000       C  0.62443774  0.24379491  0.23391098     0.07500
C1001       C  0.63845509  0.24454380  0.26114968    -0.02300
C1002       C  0.66891025  0.25070057  0.26288516    -0.02300
C1003       C  0.68668782  0.25399498  0.23711326     0.07600
C1004       C  0.67037101  0.26132534  0.21136881    -0.02500
Br1005     Br  0.68297217  0.29231465  0.18516988    -0.01100
Br1006     Br  0.62086759  0.25563957  0.17172114    -0.01100
Br1007     Br  0.68300708  0.26116244  0.30056929    -0.01100
Br1008     Br  0.61582040  0.23596436  0.29614410    -0.01100
C1009       C  0.72573133  0.24208309  0.16838539    -0.02200
C1010       C  0.74533371  0.25978056  0.18493070     0.07500
C1011       C  0.76992525  0.27064197  0.16775240    -0.02300
C1012       C  0.76824895  0.27273536  0.13652406    -0.02300
C1013       C  0.74313654  0.26307443  0.12170241     0.07600
C1014       C  0.72283178  0.24598288  0.13764938    -0.02500
Br1015     Br  0.69126382  0.22720473  0.11695419    -0.01100
Br1016     Br  0.70867871  0.20728973  0.18434984    -0.01100
Br1017     Br  0.79950263  0.29059228  0.11368977    -0.01100
Br1018     Br  0.80696858  0.28260556  0.18428088    -0.01100
C1019       C  0.71616197  0.18405666  0.25135211    -0.02200
C1020       C  0.72570581  0.20398748  0.27287713     0.07500
C1021       C  0.73008117  0.19033085  0.30105117    -0.02300
C1022       C  0.73361476  0.15928972  0.30394423    -0.02300
C1023       C  0.73138493  0.14090912  0.27946656     0.07600
C1024       C  0.72513624  0.15452215  0.25235794    -0.02500
Br1025     Br  0.71868213  0.13086773  0.21844772    -0.01100
Br1026     Br  0.67464182  0.18407595  0.24395430    -0.01100
Br1027     Br  0.74102964  0.14141845  0.34178082    -0.01100
Br1028     Br  0.71960744  0.20986647  0.33649761    -0.01100
C1029       C  0.20724260  0.68191181  0.20124925    -0.02200
C1030       C  0.21728491  0.69176219  0.22888998     0.07500
C1031       C  0.22386040  0.66946525  0.25002631    -0.02300
C1032       C  0.21823044  0.63942013  0.24480159    -0.02300
C1033       C  0.21138035  0.62976821  0.21644195     0.07600
C1034       C  0.20723208  0.65167681  0.19438606    -0.02500
Br1035     Br  0.20500671  0.64129185  0.15357893    -0.01100
Br1036     Br  0.19136433  0.70820278  0.17231583    -0.01100
Br1037     Br  0.21868387  0.61200152  0.27743285    -0.01100
Br1038     Br  0.24581048  0.67840395  0.28444904    -0.01100
C1039       C  0.25659096  0.73952103  0.13560595    -0.02200
C1040       C  0.27306583  0.71436536  0.12910031     0.07500
C1041       C  0.28365600  0.69761272  0.15343691    -0.02300
C1042       C  0.27625005  0.70458350  0.18296080    -0.02300
C1043       C  0.25934687  0.72968248  0.18968155     0.07600
C1044       C  0.24996088  0.74700215  0.16510822    -0.02500
Br1045     Br  0.22322689  0.77862476  0.17052819    -0.01100
Br1046     Br  0.24042737  0.76285044  0.10391781    -0.01100
Br1047     Br  0.28814403  0.67778719  0.21344028    -0.01100
Br1048     Br  0.31022032  0.66557126  0.14681712    -0.01100
C1049       C  0.13688107  0.71462875  0.30042055    -0.02200
C1050       C  0.11550718  0.72009630  0.27857585     0.07500
C1051       C  0.12535926  0.73080530  0.25125518    -0.02300
C1052       C  0.15547247  0.73743704  0.24633609    -0.02300
C1053       C  0.17774178  0.73044842  0.26726765     0.07600
C1054       C  0.16750266  0.71854253  0.29464332    -0.02500
Br1055     Br  0.19401872  0.70708253  0.32532874    -0.01100
Br1056     Br  0.12388506  0.70314494  0.33930146    -0.01100
Br1057     Br  0.16407527  0.76095267  0.21245299    -0.01100
Br1058     Br  0.09751060  0.73527655  0.21967660    -0.01100
C1059       C  0.38316678  0.00607676  0.44690075    -0.02200
C1060       C  0.37776473  0.99215710  0.42027931     0.07500
C1061       C  0.39958927  0.97496903  0.40724833    -0.02300
C1062       C  0.42687584  0.97162424  0.42094471    -0.02300
C1063       C  0.43242738  0.98569477  0.44757241     0.07600
C1064       C  0.41057360  0.00301750  0.46052928    -0.02500
Br1065     Br  0.41802373  0.02269040  0.49685615    -0.01100
Br1066     Br  0.35305139  0.02965861  0.46431443    -0.01100
Br1067     Br  0.45745289  0.95005689  0.40160373    -0.01100
Br1068     Br  0.39297765  0.95773575  0.36949783    -0.01100
C1069       C  0.23463551  0.83027572  0.25553187    -0.02200
C1070       C  0.25564774  0.80933336  0.26531879     0.07500
C1071       C  0.28084156  0.82084855  0.27961823    -0.02300
C1072       C  0.28449637  0.85157571  0.28335975    -0.02300
C1073       C  0.26174824  0.87147609  0.27635495     0.07600
C1074       C  0.23654690  0.86024850  0.26281151    -0.02500
Br1075     Br  0.20338023  0.88550229  0.25582121    -0.01100
Br1076     Br  0.20443497  0.81962634  0.22891570    -0.01100
Br1077     Br  0.32182142  0.86670938  0.29645186    -0.01100
Br1078     Br  0.31046098  0.79592887  0.29587435    -0.01100
C1079       C  0.22589066  0.25426033  0.32985535    -0.02200
C1080       C  0.24339668  0.23749353  0.31079056     0.07500
C1081       C  0.26280923  0.21707031  0.32600749    -0.02300
C1082       C  0.25920225  0.21096710  0.35660143    -0.02300
C1083       C  0.23574206  0.22287812  0.37238527     0.07600
C1084       C  0.21823539  0.24378049  0.35810417    -0.02500
Br1085     Br  0.18564446  0.26106105  0.37804189    -0.01100
Br1086     Br  0.23446990  0.29494156  0.33063783    -0.01100
Br1087     Br  0.28672357  0.18646848  0.37787293    -0.01100
Br1088     Br  0.29625853  0.19752771  0.30882059    -0.01100
C1089       C  0.32507593  0.24381724  0.25684326    -0.02200
C1090       C  0.30733007  0.23537504  0.23247435     0.07500
C1091       C  0.32315594  0.22719109  0.20676310    -0.02300
C1092       C  0.35427957  0.22589410  0.20659120    -0.02300
C1093       C  0.37061651  0.23024622  0.23220938     0.07600
C1094       C  0.35589064  0.23964462  0.25722193    -0.02500
Br1095     Br  0.37825053  0.24644749  0.29237862    -0.01100
Br1096     Br  0.30938282  0.26462379  0.28924188    -0.01100
Br1097     Br  0.37548257  0.21972202  0.17044861    -0.01100
Br1098     Br  0.30468671  0.21744372  0.17056879    -0.01100
C1099       C  0.21265592  0.35416685  0.20097588    -0.02200
C1100       C  0.23256972  0.37485428  0.21276167     0.07500
C1101       C  0.25349164  0.36470940  0.23294912    -0.02300
C1102       C  0.25425121  0.33485111  0.24165907    -0.02300
C1103       C  0.23526050  0.31349110  0.22926817     0.07600
C1104       C  0.21376582  0.32399082  0.20938407    -0.02500
Br1105     Br  0.18350874  0.29816872  0.19596283    -0.01100
Br1106     Br  0.18287177  0.36712781  0.17381271    -0.01100
Br1107     Br  0.27846607  0.32548408  0.27437202    -0.01100
Br1108     Br  0.28262107  0.39163641  0.24773899    -0.01100
C1109       C  0.25061941  0.26197707  0.16575160    -0.02200
C1110       C  0.26804175  0.27361155  0.18871433     0.07500
C1111       C  0.29228876  0.29135262  0.18006196    -0.02300
C1112       C  0.29942836  0.29610410  0.14982291    -0.02300
C1113       C  0.28353457  0.28198732  0.12713371     0.07600
C1114       C  0.25844980  0.26556676  0.13570361    -0.02500
Br1115     Br  0.23606367  0.24462990  0.10680782    -0.01100
Br1116     Br  0.21736552  0.23769069  0.17453402    -0.01100
Br1117     Br  0.33042346  0.32349207  0.13982497    -0.01100
Br1118     Br  0.31708456  0.30800875  0.20949364    -0.01100
C1119       C  0.27466859  0.14254325  0.24287094    -0.02200
C1120       C  0.26297364  0.12737899  0.26721475     0.07500
C1121       C  0.24365776  0.14243854  0.28561040    -0.02300
C1122       C  0.23757560  0.17268649  0.28064419    -0.02300
C1123       C  0.25385570  0.18949110  0.25875653     0.07600
C1124       C  0.26691700  0.17195065  0.23707258    -0.02500
Br1125     Br  0.25306320  0.17759666  0.19817508    -0.01100
Br1126     Br  0.29930082  0.12248848  0.21555097    -0.01100
Br1127     Br  0.20307445  0.18648615  0.30088419    -0.01100
Br1128     Br  0.22578411  0.12122466  0.31813023    -0.01100
C1129       C  0.99835756  0.34209619  0.46856366    -0.02200
C1130       C  0.98729944  0.34273963  0.43978145     0.07500
C1131       C  0.97580341  0.36894153  0.42792996    -0.02300
C1132       C  0.97453086  0.39408229  0.44508886    -0.02300
C1133       C  0.98560698  0.39354592  0.47389041     0.07600
C1134       C  0.99785069  0.36758001  0.48550500    -0.02500
Br1135     Br  0.01360337  0.36687360  0.52462467    -0.01100
Br1136     Br  0.01405444  0.30618442  0.48466201    -0.01100
Br1137     Br  0.95935295  0.42990216  0.42818584    -0.01100
Br1138     Br  0.96390458  0.37128600  0.38737341    -0.01100
C1139       C  0.82419762  0.29640706  0.27277671    -0.02200
C1140       C  0.80788998  0.27417392  0.25889352     0.07500
C1141       C  0.82391742  0.25034552  0.24710385    -0.02300
C1142       C  0.85478727  0.24790699  0.25122607    -0.02300
C1143       C  0.87053141  0.26917497  0.26692781     0.07600
C1144       C  0.85500832  0.29391450  0.27668301    -0.02500
Br1145     Br  0.87634338  0.32496898  0.29549489    -0.01100
Br1146     Br  0.80499848  0.33048525  0.28714763    -0.01100
Br1147     Br  0.87539015  0.21458694  0.23643988    -0.01100
Br1148     Br  0.80378363  0.22066225  0.22468319     0.03100
C1149       C  0.14245520  0.24737716  0.26447126    -0.02200
C1150       C  0.12874813  0.27248485  0.27507712     0.07500
C1151       C  0.14660940  0.29716641  0.28055276    -0.02300
C1152       C  0.17771289  0.29646041  0.27669456    -0.02300
C1153       C  0.19224029  0.27045488  0.26723141     0.07600
C1154       C  0.17320044  0.24690617  0.25916748    -0.02500
Br1155     Br  0.18719269  0.21509930  0.23630082    -0.01100
Br1156     Br  0.11902769  0.21263217  0.25858921    -0.01100
Br1157     Br  0.19796242  0.33282395  0.28329115    -0.01100
Br1158     Br  0.12775674  0.33284004  0.29264494    -0.01100
C1159       C  0.34973038  0.78834779  0.79565916    -0.02200
C1160       C  0.37116533  0.78203762  0.77406440     0.07500
C1161       C  0.36182497  0.76608643  0.74968539    -0.02300
C1162       C  0.33233979  0.75621094  0.74728528    -0.02300
C1163       C  0.30995430  0.76445763  0.76732509     0.07600
C1164       C  0.31953109  0.78071868  0.79186191    -0.02500
Br1165     Br  0.29236450  0.79347879  0.82092877    -0.01100
Br1166     Br  0.36182675  0.80605389  0.83182750    -0.01100
Br1167     Br  0.32446710  0.72824561  0.71779808    -0.01100
Br1168     Br  0.38895596  0.75914639  0.71799758    -0.01100
C1169       C  0.63908940  0.76955255  0.75926114    -0.02200
C1170       C  0.62921024  0.79072363  0.77906639     0.07500
C1171       C  0.65136033  0.80747964  0.79326160    -0.02300
C1172       C  0.68168756  0.80025364  0.79084012    -0.02300
C1173       C  0.69168588  0.78049766  0.76952499     0.07600
C1174       C  0.66941315  0.76681902  0.75259753    -0.02500
Br1175     Br  0.67904827  0.74219769  0.72087593    -0.01100
Br1176     Br  0.61199421  0.74127630  0.74329871    -0.01100
Br1177     Br  0.70839057  0.81611504  0.81880539    -0.01100
Br1178     Br  0.64152881  0.84292721  0.81332069    -0.01100
C1179       C  0.53103369  0.95287274  0.88553870    -0.02200
C1180       C  0.50484117  0.93659874  0.88350234     0.07500
C1181       C  0.48011702  0.94456115  0.89988889    -0.02300
C1182       C  0.48186238  0.96793412  0.91933533    -0.02300
C1183       C  0.50930698  0.98214568  0.92428819     0.07600
C1184       C  0.53328725  0.97573598  0.90565181    -0.02500
Br1185     Br  0.56893537  0.99887764  0.90592933    -0.01100
Br1186     Br  0.56391461  0.94377390  0.86057227    -0.01100
Br1187     Br  0.44568137  0.97934434  0.93832053    -0.01100
Br1188     Br  0.44437366  0.92151190  0.89806099    -0.01100
C1189       C  0.20811323  0.34187318  0.79336733    -0.02200
C1190       C  0.21861224  0.36434726  0.77416000     0.07500
C1191       C  0.23684019  0.35607881  0.75102311    -0.02300
C1192       C  0.24395641  0.32619954  0.74668827    -0.02300
C1193       C  0.23350187  0.30295778  0.76557840     0.07600
C1194       C  0.21574202  0.31181414  0.78949368    -0.02500
Br1195     Br  0.20137137  0.28344792  0.81755131    -0.01100
Br1196     Br  0.18328133  0.35261144  0.82561752    -0.01100
Br1197     Br  0.26974512  0.31914393  0.71493435    -0.01100
Br1198     Br  0.25104033  0.38618667  0.72401415    -0.01100
C1199       C  0.23749157  0.63185936  0.75901103    -0.02200
C1200       C  0.21571356  0.62283018  0.77942506     0.07500
C1201       C  0.20255007  0.64535401  0.79595448    -0.02300
C1202       C  0.20807595  0.67571586  0.78964940    -0.02300
C1203       C  0.23005162  0.68506064  0.76928180     0.07600
C1204       C  0.24528306  0.66205044  0.75510221    -0.02500
Br1205     Br  0.27761821  0.67091315  0.72988462    -0.01100
Br1206     Br  0.25627192  0.60312215  0.73491261    -0.01100
Br1207     Br  0.18355096  0.70350559  0.80842897    -0.01100
Br1208     Br  0.17907433  0.63482326  0.82986382    -0.01100
C1209       C  0.02718096  0.45409327  0.85856855    -0.02200
C1210       C  0.05732260  0.46093614  0.85690674     0.07500
C1211       C  0.07519192  0.45698305  0.88183410    -0.02300
C1212       C  0.06228753  0.44962789  0.90891496    -0.02300
C1213       C  0.03166848  0.44735575  0.91128551     0.07600
C1214       C  0.01436329  0.44712598  0.88589701    -0.02500
Br1215     Br  0.97341946  0.43695003  0.88891084    -0.01100
Br1216     Br  0.00337580  0.45570373  0.82382212    -0.01100
Br1217     Br  0.08620139  0.44192894  0.94283236    -0.01100
Br1218     Br  0.11715036  0.46241963  0.87925778    -0.01100
C1219       C  0.68351411  0.22559588  0.79011181    -0.02200
C1220       C  0.69260887  0.24164527  0.76463137     0.07500
C1221       C  0.66961959  0.25137206  0.74558498    -0.02300
C1222       C  0.63945009  0.24587603  0.75173099    -0.02300
C1223       C  0.63080102  0.23055442  0.77732100     0.07600
C1224       C  0.65328091  0.21936285  0.79570557    -0.02500
Br1225     Br  0.64266716  0.19359452  0.82811019    -0.01100
Br1226     Br  0.71121359  0.21336144  0.81933686    -0.01100
Br1227     Br  0.60968257  0.26144151  0.72572074    -0.01100
Br1228     Br  0.67769667  0.27633978  0.71266059    -0.01100
C1229       C  0.33372369  0.24504608  0.75899147    -0.02200
C1230       C  0.31163423  0.22442694  0.76797200     0.07500
C1231       C  0.32181250  0.19849671  0.78231620    -0.02300
C1232       C  0.35233459  0.19413313  0.78777419    -0.02300
C1233       C  0.37366347  0.21514941  0.77878760     0.07600
C1234       C  0.36396218  0.24058336  0.76435212    -0.02500
Br1235     Br  0.39235674  0.27050799  0.75308280    -0.01100
Br1236     Br  0.32437293  0.27918355  0.73682774    -0.01100
Br1237     Br  0.36528897  0.15879386  0.80744254    -0.01100
Br1238     Br  0.29493986  0.16840934  0.79515789    -0.01100
C1239       C  0.50224122  0.15636959  0.97064601    -0.02200
C1240       C  0.51949968  0.16408550  0.94599811     0.07500
C1241       C  0.53895127  0.14328862  0.93417192    -0.02300
C1242       C  0.53885808  0.11438959  0.94523836    -0.02300
C1243       C  0.52194021  0.10690474  0.97014836     0.07600
C1244       C  0.50460678  0.12837894  0.98358227    -0.02500
Br1245     Br  0.48425483  0.11988245  0.01997728    -0.01100
Br1246     Br  0.47421240  0.18370401  0.98603959    -0.01100
Br1247     Br  0.55879987  0.08436416  0.92366592    -0.01100
Br1248     Br  0.56442447  0.15281198  0.90141115    -0.01100
C1249       C  0.80339660  0.66347649  0.79456471    -0.02200
C1250       C  0.78336779  0.64106160  0.78666401     0.07500
C1251       C  0.75727603  0.64973978  0.77289465    -0.02300
C1252       C  0.75194970  0.67959067  0.76570140    -0.02300
C1253       C  0.77131827  0.70275871  0.77390975     0.07600
C1254       C  0.79739206  0.69378836  0.78866446    -0.02500
Br1255     Br  0.82552961  0.72220460  0.80134810    -0.01100
Br1256     Br  0.83983401  0.65243351  0.81296809    -0.01100
Br1257     Br  0.71956445  0.68652165  0.74055759    -0.01100
Br1258     Br  0.72750667  0.62047990  0.76513717    -0.01100
C1259       C  0.75494075  0.37322596  0.75872197    -0.02200
C1260       C  0.78054178  0.38326893  0.77224577     0.07500
C1261       C  0.80166899  0.36220194  0.78063421    -0.02300
C1262       C  0.79685598  0.33157235  0.77651581    -0.02300
C1263       C  0.77089961  0.32093770  0.76269376     0.07600
C1264       C  0.75037702  0.34293320  0.75371085    -0.02500
Br1265     Br  0.71550066  0.33331529  0.73331423    -0.01100
Br1266     Br  0.72510075  0.40150248  0.74828218    -0.01100
Br1267     Br  0.82584334  0.30530851  0.79191197    -0.01100
Br1268     Br  0.83778465  0.37590758  0.79772753    -0.01100
C1269       C  0.85981324  0.46575866  0.96111911    -0.02200
C1270       C  0.85563586  0.48208360  0.93512537     0.07500
C1271       C  0.88003351  0.49069559  0.91788473    -0.02300
C1272       C  0.90846892  0.48687349  0.92877313    -0.02300
C1273       C  0.91284015  0.47077456  0.95508233     0.07600
C1274       C  0.88837299  0.45869648  0.97029760    -0.02500
Br1275     Br  0.89328335  0.43331339  0.00422702    -0.01100
Br1276     Br  0.82638373  0.45417877  0.98469732    -0.01100
Br1277     Br  0.94102838  0.50393897  0.90708203    -0.01100
Br1278     Br  0.87493738  0.50579470  0.87837083    -0.01100
C1279       C  0.74963733  0.36869088  0.25072552    -0.02200
C1280       C  0.77048497  0.38209199  0.23152422     0.07500
C1281       C  0.77986108  0.36510575  0.20754665    -0.02300
C1282       C  0.76931361  0.33617932  0.20411547    -0.02300
C1283       C  0.75767445  0.32034043  0.22842954     0.07600
C1284       C  0.74212474  0.33839969  0.24796682    -0.02500
Br1285     Br  0.70332368  0.32616229  0.25927992    -0.01100
Br1286     Br  0.73182270  0.39091077  0.28125548    -0.01100
Br1287     Br  0.74786999  0.33338344  0.16812799    -0.01100
Br1288     Br  0.80115423  0.38267990  0.17502394    -0.01100
C1289       C  0.79001486  0.69360970  0.22632999    -0.02200
C1290       C  0.76154422  0.70204083  0.23566928     0.07500
C1291       C  0.74157193  0.67857889  0.24175119    -0.02300
C1292       C  0.74821810  0.64911067  0.23516651    -0.02300
C1293       C  0.77731603  0.64057832  0.22908995     0.07600
C1294       C  0.79848671  0.66361320  0.22633551    -0.02500
Br1295     Br  0.84003649  0.65533065  0.22677232    -0.01100
Br1296     Br  0.81831803  0.72198597  0.21268899    -0.01100
Br1297     Br  0.71628504  0.62130229  0.23348606    -0.01100
Br1298     Br  0.70821637  0.68412543  0.26640961    -0.01100
C1299       C  0.95762356  0.48770342  0.12287921    -0.02200
C1300       C  0.92750899  0.49453898  0.12257317     0.07500
C1301       C  0.91252529  0.49703684  0.09568052    -0.02300
C1302       C  0.92782480  0.49387969  0.06927926    -0.02300
C1303       C  0.95747315  0.48557837  0.06958714     0.07600
C1304       C  0.97261786  0.48326434  0.09632943    -0.02500
Br1305     Br  0.01427298  0.47636334  0.09624155    -0.01100
Br1306     Br  0.97828533  0.48467749  0.15954736    -0.01100
Br1307     Br  0.90850041  0.50266739  0.03273335    -0.01100
Br1308     Br  0.87055315  0.50269324  0.09476192    -0.01100
C1309       C  0.62814242  0.76412273  0.24314981    -0.02200
C1310       C  0.61834283  0.78150035  0.21937450     0.07500
C1311       C  0.64008084  0.79816011  0.20379446    -0.02300
C1312       C  0.67070408  0.79527221  0.21019698    -0.02300
C1313       C  0.68067506  0.77780085  0.23418164     0.07600
C1314       C  0.65824855  0.76368547  0.25121484    -0.02500
Br1315     Br  0.66758605  0.74173192  0.28550542    -0.01100
Br1316     Br  0.60095928  0.73790967  0.26336363    -0.01100
Br1317     Br  0.69839270  0.81554896  0.18541301    -0.01100
Br1318     Br  0.62822321  0.82705758  0.17485770    -0.01100
C1319       C  0.34963616  0.75970835  0.24130566    -0.02200
C1320       C  0.35952698  0.78007983  0.21966476     0.07500
C1321       C  0.33735271  0.79346756  0.20199867    -0.02300
C1322       C  0.30700560  0.79009042  0.20895225    -0.02300
C1323       C  0.29717397  0.76817476  0.22902982     0.07600
C1324       C  0.31946307  0.75175679  0.24352468    -0.02500
Br1325     Br  0.30961254  0.71909097  0.26848036    -0.01100
Br1326     Br  0.37606971  0.74491173  0.27101746    -0.01100
Br1327     Br  0.28000891  0.81765988  0.19223962    -0.01100
Br1328     Br  0.34698030  0.81340229  0.16555138    -0.01100
C1329       C  0.52754360  0.91178209  0.08494622    -0.02200
C1330       C  0.50590285  0.89151031  0.07666173     0.07500
C1331       C  0.49096195  0.89505059  0.05003876    -0.02300
C1332       C  0.49571163  0.92036295  0.03279604    -0.02300
C1333       C  0.51647458  0.94145684  0.04163873     0.07600
C1334       C  0.53347486  0.93637928  0.06702394    -0.02500
Br1335     Br  0.56347311  0.96383811  0.07875544    -0.01100
Br1336     Br  0.54780553  0.90668431  0.12176086    -0.01100
Br1337     Br  0.47365789  0.92597385  0.99715230    -0.01100
Br1338     Br  0.46367267  0.86534691  0.03764911    -0.01100
C1339       C  0.77992276  0.80590940  0.35441921    -0.02200
C1340       C  0.76346316  0.79038597  0.37610009     0.07500
C1341       C  0.74399989  0.76859989  0.36653159    -0.02300
C1342       C  0.74249497  0.76140367  0.33647660    -0.02300
C1343       C  0.75621447  0.77902392  0.31412065     0.07600
C1344       C  0.77436419  0.80222259  0.32406979    -0.02500
Br1345     Br  0.79096916  0.83085107  0.29767291    -0.01100
Br1346     Br  0.81246965  0.83045057  0.36588257    -0.01100
Br1347     Br  0.72174240  0.72640656  0.32764458    -0.01100
Br1348     Br  0.71729448  0.74994011  0.39419080    -0.01100
C1349       C  0.76297417  0.75876316  0.67240385    -0.02200
C1350       C  0.77084564  0.78003552  0.69343208     0.07500
C1351       C  0.78378805  0.80626620  0.68214079    -0.02300
C1352       C  0.78599786  0.81161121  0.65140359    -0.02300
C1353       C  0.78083453  0.78892764  0.63114839     0.07600
C1354       C  0.77025172  0.76202754  0.64241645    -0.02500
Br1355     Br  0.76679656  0.72850854  0.61736350    -0.01100
Br1356     Br  0.73839661  0.72635331  0.68246564    -0.01100
Br1357     Br  0.79277185  0.85125895  0.63752171    -0.01100
Br1358     Br  0.80104827  0.83447934  0.70754283    -0.01100
C1359       C  0.87701998  0.95822310  0.47223501    -0.02200
C1360       C  0.86267934  0.95002109  0.49842919     0.07500
C1361       C  0.86594419  0.96713122  0.52345877    -0.02300
C1362       C  0.88662458  0.99003033  0.52353443    -0.02300
C1363       C  0.90485368  0.99501579  0.49874140     0.07600
C1364       C  0.89711241  0.98161811  0.47202135    -0.02500
Br1365     Br  0.91274788  0.99503143  0.43465845    -0.01100
Br1366     Br  0.87193160  0.93543327  0.43736346    -0.01100
Br1367     Br  0.88855728  0.01479840  0.55731277    -0.01100
Br1368     Br  0.84257429  0.95851755  0.55792455    -0.01100
C1369       C  0.78940612  0.21557422  0.64393147    -0.02200
C1370       C  0.78096544  0.23754790  0.62361374     0.07500
C1371       C  0.76582127  0.26182557  0.63401452    -0.02300
C1372       C  0.76065399  0.26499217  0.66438233    -0.02300
C1373       C  0.77032507  0.24389841  0.68566978     0.07600
C1374       C  0.78403906  0.21842706  0.67447392    -0.02500
Br1375     Br  0.79581189  0.18646663  0.69938303    -0.01100
Br1376     Br  0.80774225  0.18076878  0.62924074    -0.01100
Br1377     Br  0.73770521  0.29773779  0.67527142    -0.01100
Br1378     Br  0.75255899  0.29133788  0.60624731    -0.01100
C1379       C  0.76697037  0.26636830  0.35830269    -0.02200
C1380       C  0.78391457  0.24301170  0.36891561     0.07500
C1381       C  0.79462982  0.22256823  0.34869593    -0.02300
C1382       C  0.78750069  0.22477631  0.31840497    -0.02300
C1383       C  0.76966052  0.24797844  0.30743832     0.07600
C1384       C  0.76081655  0.26938655  0.32804258    -0.02500
Br1385     Br  0.74080743  0.30412337  0.31615479    -0.01100
Br1386     Br  0.75295533  0.29513498  0.38551153    -0.01100
Br1387     Br  0.80190605  0.19497300  0.29314813    -0.01100
Br1388     Br  0.81838713  0.19056590  0.36300437    -0.01100
C1389       C  0.97838207  0.13447575  0.48377240    -0.02200
C1390       C  0.96008625  0.11222233  0.49563195     0.07500
C1391       C  0.93146612  0.11892024  0.50482587    -0.02300
C1392       C  0.92197755  0.14806589  0.50461751    -0.02300
C1393       C  0.94112469  0.17070938  0.49487693     0.07600
C1394       C  0.96880561  0.16373157  0.48327893    -0.02500
Br1395     Br  0.99358989  0.19436021  0.46706151    -0.01100
Br1396     Br  0.01677755  0.12506429  0.46898694    -0.01100
Br1397     Br  0.88213144  0.15635481  0.51642227    -0.01100
Br1398     Br  0.90457814  0.08780554  0.51595334    -0.01100
C1399       C  0.24054415  0.74398335  0.66555844    -0.02200
C1400       C  0.23141682  0.76270946  0.68857775     0.07500
C1401       C  0.21456655  0.78732404  0.67963384    -0.02300
C1402       C  0.20747187  0.79271964  0.64949333    -0.02300
C1403       C  0.21397616  0.77207674  0.62745409     0.07600
C1404       C  0.23034475  0.74739998  0.63624353    -0.02500
Br1405     Br  0.23739136  0.71670284  0.60859247    -0.01100
Br1406     Br  0.26973197  0.71481590  0.67205464    -0.01100
Br1407     Br  0.19088939  0.83001324  0.63829276    -0.01100
Br1408     Br  0.20037406  0.81399290  0.70824920    -0.01100
C1409       C  0.19001528  0.78290478  0.31520576    -0.02200
C1410       C  0.21745176  0.77119735  0.30639144     0.07500
C1411       C  0.23761090  0.76540979  0.32963251    -0.02300
C1412       C  0.23198175  0.77339603  0.35907345    -0.02300
C1413       C  0.20360235  0.78159802  0.36816278     0.07600
C1414       C  0.18230924  0.78504447  0.34549930    -0.02500
Br1415     Br  0.14124897  0.78867961  0.35512212    -0.01100
Br1416     Br  0.16244139  0.79712339  0.28669490    -0.01100
Br1417     Br  0.26435763  0.77421816  0.38623371    -0.01100
Br1418     Br  0.27029832  0.74036378  0.32398527    -0.01100
C1419       C  0.06614724  0.91790644  0.53379920    -0.02200
C1420       C  0.05614081  0.89422520  0.51709213     0.07500
C1421       C  0.02800651  0.89518688  0.50442824    -0.02300
C1422       C  0.01086559  0.92059599  0.50657093    -0.02300
C1423       C  0.02195463  0.94520867  0.52105738     0.07600
C1424       C  0.04894337  0.94325692  0.53605644    -0.02500
Br1425     Br  0.06333126  0.97581139  0.55835571    -0.01100
Br1426     Br  0.10439989  0.91653390  0.55182074    -0.01100
Br1427     Br  0.97178905  0.92167731  0.49047595    -0.01100
Br1428     Br  0.01317538  0.86179892  0.48386388    -0.01100
loop_ 
_geom_bond_atom_site_label_1 
_geom_bond_atom_site_label_2 
_geom_bond_distance 
_geom_bond_site_symmetry_2 
_ccdc_geom_bond_type 
N1            N2   1.324       .  A
N1            C5   1.367       .  A
N1           Cu9   2.210       .  S
N2            C3   1.348       .  A
N2           Cu8   2.079       .  S
C3            C4   1.388       .  A
C3            H6   1.079       .  S
C4            C5   1.420       .  A
C4         C1413   1.542       .  S
C5            H7   1.084       .  S
Cu8          N11   2.080       .  S
Cu9          N19   2.210       .  S
Cu10         N12   2.068       .  S
Cu10         N18   2.067       .  S
N11          N12   1.321       .  A
N11          C15   1.346       .  A
N12          C13   1.346       .  A
C13          C14   1.383       .  A
C13          H16   1.083       .  S
C14          C15   1.384       .  A
C14        C1420   1.479       .  S
C15          H17   1.086       .  S
N18          N19   1.325       .  A
N18          C22   1.347       .  A
N19          C20   1.369       .  A
C20          C21   1.418       .  A
C20          H23   1.082       .  S
C21          C22   1.384       .  A
C21        C1403   1.535       .  S
C22          H24   1.082       .  S
N25          N26   1.325       .  A
N25          C29   1.362       .  A
N25         Cu33   2.169       .  S
N26          C27   1.342       .  A
N26         Cu32   2.047       .  S
C27          C28   1.374       .  A
C27          H30   1.081       .  S
C28          C29   1.406       .  A
C28        C1380   1.502       .  S
C29          H31   1.082       .  S
Cu32         N35   2.046       .  S
Cu33         N43   2.169       .  S
Cu34         N36   2.057       .  S
Cu34         N42   2.060       .  S
N35          N36   1.317       .  A
N35          C39   1.342       .  A
N36          C37   1.342       .  A
C37          C38   1.386       .  A
C37          H40   1.081       .  S
C38          C39   1.381       .  A
C38        C1393   1.476       .  S
C39          H41   1.082       .  S
N42          N43   1.326       .  A
N42          C46   1.343       .  A
N43          C44   1.363       .  A
C44          C45   1.405       .  A
C44          H47   1.079       .  S
C45          C46   1.375       .  A
C45        C1370   1.504       .  S
C46          H48   1.081       .  S
N49          N50   1.321       .  A
N49          C53   1.361       .  A
N49         Cu57   2.158       .  S
N50          C51   1.343       .  A
N50         Cu56   2.054       .  S
C51          C52   1.383       .  A
C51          H54   1.080       .  S
C52          C53   1.409       .  A
C52        C1340   1.517       .  S
C53          H55   1.085       .  S
Cu56         N59   2.057       .  S
Cu57         N67   2.159       .  S
Cu58         N60   2.055       .  S
Cu58         N66   2.050       .  S
N59          N60   1.322       .  A
N59          C63   1.343       .  A
N60          C61   1.340       .  A
C61          C62   1.379       .  A
C61          H64   1.084       .  S
C62          C63   1.380       .  A
C62        C1360   1.467       .  S
C63          H65   1.079       .  S
N66          N67   1.321       .  A
N66          C70   1.344       .  A
N67          C68   1.358       .  A
C68          C69   1.408       .  A
C68          H71   1.084       .  S
C69          C70   1.383       .  A
C69        C1353   1.516       .  S
C70          H72   1.080       .  S
N73          N74   1.319       .  A
N73          C77   1.361       .  A
N73         Cu81   2.175       .  S
N74          C75   1.347       .  A
N74         Cu80   2.055       .  S
C75          C76   1.388       .  A
C75          H78   1.080       .  S
C76          C77   1.415       .  A
C76        C1310   1.532       .  S
C77          H79   1.082       .  S
Cu80         N83   2.059       .  S
Cu81         N91   2.174       .  S
Cu82         N84   2.067       .  S
Cu82         N90   2.059       .  S
N83          N84   1.324       .  A
N83          C87   1.342       .  A
N84          C85   1.342       .  A
C85          C86   1.378       .  A
C85          H88   1.081       .  S
C86          C87   1.377       .  A
C86        C1330   1.462       .  S
C87          H89   1.082       .  S
N90          N91   1.318       .  A
N90          C94   1.345       .  A
N91          C92   1.361       .  A
C92          C93   1.417       .  A
C92          H95   1.079       .  S
C93          C94   1.391       .  A
C93        C1320   1.537       .  S
C94          H96   1.077       .  S
N97          N98   1.323       .  A
N97         C101   1.366       .  A
N97        Cu105   2.201       .  S
N98          C99   1.344       .  A
N98        Cu104   2.062       .  S
C99         C100   1.385       .  A
C99         H102   1.083       .  S
C100        C101   1.419       .  A
C100       C1293   1.535       .  S
C101        H103   1.080       .  S
Cu104       N107   2.062       .  S
Cu105       N115   2.202       .  S
Cu106       N108   2.066       .  S
Cu106       N114   2.064       .  S
N107        N108   1.319       .  A
N107        C111   1.342       .  A
N108        C109   1.346       .  A
C109        C110   1.384       .  A
C109        H112   1.080       .  S
C110        C111   1.384       .  A
C110       C1300   1.475       .  S
C111        H113   1.081       .  S
N114        N115   1.324       .  A
N114        C118   1.343       .  A
N115        C116   1.370       .  A
C116        C117   1.416       .  A
C116        H119   1.081       .  S
C117        C118   1.381       .  A
C117       C1280   1.527       .  S
C118        H120   1.082       .  S
N121        N122   1.327       .  A
N121        C125   1.366       .  A
N121       Cu129   2.211       .  S
N122        C123   1.348       .  A
N122       Cu128   2.064       .  S
C123        C124   1.379       .  A
C123        H126   1.082       .  S
C124        C125   1.415       .  A
C124       C1250   1.524       .  S
C125        H127   1.080       .  S
Cu128       N131   2.061       .  S
Cu129       N139   2.210       .  S
Cu130       N132   2.038       .  S
Cu130       N138   2.040       .  S
N131        N132   1.317       .  A
N131        C135   1.341       .  A
N132        C133   1.341       .  A
C133        C134   1.379       .  A
C133        H136   1.082       .  S
C134        C135   1.385       .  A
C134       C1270   1.471       .  S
C135        H137   1.082       .  S
N138        N139   1.325       .  A
N138        C142   1.342       .  A
N139        C140   1.370       .  A
C140        C141   1.416       .  A
C140        H143   1.079       .  S
C141        C142   1.372       .  A
C141       C1260   1.516       .  S
C142        H144   1.086       .  S
N145        N146   1.326       .  A
N145        C149   1.365       .  A
N145       Cu153   2.188       .  S
N146        C147   1.343       .  A
N146       Cu152   2.064       .  S
C147        C148   1.380       .  A
C147        H150   1.079       .  S
C148        C149   1.412       .  A
C148       C1223   1.521       .  S
C149        H151   1.083       .  S
Cu152       N155   2.061       .  S
Cu153       N163   2.186       .  S
Cu154       N156   2.037       .  S
Cu154       N162   2.038       .  S
N155        N156   1.316       .  A
N155        C159   1.345       .  A
N156        C157   1.338       .  A
C157        C158   1.380       .  A
C157        H160   1.083       .  S
C158        C159   1.388       .  A
C158       C1240   1.478       .  S
C159        H161   1.081       .  S
N162        N163   1.323       .  A
N162        C166   1.342       .  A
N163        C164   1.364       .  A
C164        C165   1.411       .  A
C164        H167   1.083       .  S
C165        C166   1.374       .  A
C165       C1233   1.510       .  S
C166        H168   1.080       .  S
N169        N170   1.325       .  A
N169        C173   1.367       .  A
N169       Cu177   2.210       .  S
N170        C171   1.350       .  A
N170       Cu176   2.086       .  S
C171        C172   1.390       .  A
C171        H174   1.082       .  S
C172        C173   1.418       .  A
C172       C1200   1.543       .  S
C173        H175   1.082       .  S
Cu176       N179   2.084       .  S
Cu177       N187   2.210       .  S
Cu178       N180   2.046       .  S
Cu178       N186   2.050       .  S
N179        N180   1.320       .  A
N179        C183   1.346       .  A
N180        C181   1.343       .  A
C181        C182   1.378       .  A
C181        H184   1.084       .  S
C182        C183   1.388       .  A
C182       C1210   1.473       .  S
C183        H185   1.081       .  S
N186        N187   1.325       .  A
N186        C190   1.346       .  A
N187        C188   1.368       .  A
C188        C189   1.415       .  A
C188        H191   1.079       .  S
C189        C190   1.377       .  A
C189       C1190   1.522       .  S
C190        H192   1.086       .  S
N193        N194   1.319       .  A
N193        C197   1.362       .  A
N193       Cu201   2.178       .  S
N194        C195   1.345       .  A
N194       Cu200   2.056       .  S
C195        C196   1.388       .  A
C195        H198   1.079       .  S
C196        C197   1.417       .  A
C196       C1170   1.534       .  S
C197        H199   1.080       .  S
Cu200       N203   2.062       .  S
Cu201       N211   2.178       .  S
Cu202       N204   2.061       .  S
Cu202       N210   2.060       .  S
N203        N204   1.322       .  A
N203        C207   1.342       .  A
N204        C205   1.342       .  A
C205        C206   1.382       .  A
C205        H208   1.081       .  S
C206        C207   1.380       .  A
C206       C1180   1.472       .  S
C207        H209   1.083       .  S
N210        N211   1.322       .  A
N210        C214   1.347       .  A
N211        C212   1.363       .  A
C212        C213   1.412       .  A
C212        H215   1.081       .  S
C213        C214   1.385       .  A
C213       C1160   1.525       .  S
C214        H216   1.082       .  S
N217        N218   1.328       .  A
N217        C221   1.369       .  A
N217       Cu225   2.201       .  S
N218        C219   1.343       .  A
N218       Cu224   2.069       .  S
C219        C220   1.378       .  A
C219        H222   1.083       .  S
C220        C221   1.411       .  A
C220       C1143   1.517       .  S
C221        H223   1.082       .  S
Cu224       N227   2.070       .  S
Cu225       N235   2.201   1_655  S
Cu226       N228   2.048       .  S
Cu226       N234   2.048       .  S
N227        N228   1.317   1_655  A
N227        C231   1.346       .  A
N228        C229   1.342       .  A
C229        C230   1.381   1_455  A
C229        H232   1.080       .  S
C230        C231   1.388       .  A
C230       C1130   1.477       .  S
C231        H233   1.079       .  S
N234        N235   1.325       .  A
N234        C238   1.342       .  A
N235        C236   1.368       .  A
C236        C237   1.414       .  A
C236        H239   1.080       .  S
C237        C238   1.375       .  A
C237       C1150   1.517       .  S
C238        H240   1.084       .  S
C241        C242   1.440       .  A
C241        C246   1.461       .  A
C241       C1123   1.576       .  S
C242        C243   1.472       .  A
C242       C1080   1.577       .  S
C243        C244   1.458       .  A
C243       C1153   1.557       .  S
C244        C245   1.444       .  A
C244       C1103   1.536       .  S
C245        C246   1.446       .  A
C245       C1110   1.544       .  S
C246       C1090   1.549       .  S
N247        N248   1.325       .  A
N247        C251   1.364       .  A
N247       Cu255   2.181       .  S
N248        C249   1.345       .  A
N248       Cu254   2.060       .  S
C249        C250   1.380       .  A
C249        H252   1.078       .  S
C250        C251   1.409       .  A
C250       C1073   1.516       .  S
C251        H253   1.083       .  S
Cu254       N257   2.058       .  S
Cu255       N265   2.180   1_565  S
Cu256       N258   2.043       .  S
Cu256       N264   2.042       .  S
N257        N258   1.318   1_565  A
N257        C261   1.343       .  A
N258        C259   1.339       .  A
C259        C260   1.378   1_545  A
C259        H262   1.086       .  S
C260        C261   1.383       .  A
C260       C1060   1.464       .  S
C261        H263   1.080       .  S
N264        N265   1.324       .  A
N264        C268   1.343       .  A
N265        C266   1.364       .  A
C266        C267   1.407       .  A
C266        H269   1.079       .  S
C267        C268   1.373       .  A
C267       C1120   1.502       .  S
C268        H270   1.084       .  S
C271        C272   1.458       .  A
C271        C276   1.452       .  A
C271       C1323   1.543       .  S
C272        C273   1.456       .  A
C272       C1070   1.547       .  S
C273        C274   1.462       .  A
C273       C1410   1.560       .  S
C274        C275   1.466       .  A
C274       C1053   1.555       .  S
C275        C276   1.458       .  A
C275       C1030   1.545       .  S
C276       C1043   1.560       .  S
C277        C278   1.466       .  A
C277        C282   1.460       .  A
C277       C1003   1.564       .  S
C278        C279   1.461       .  A
C278       C1020   1.577       .  S
C279        C280   1.446       .  A
C279       C1383   1.538       .  S
C280        C281   1.446       .  A
C280       C1140   1.529       .  S
C281        C282   1.429       .  A
C281       C1283   1.564       .  S
C282       C1010   1.581       .  S
N283        N284   1.327       .  A
N283        C287   1.366       .  A
N283       Cu291   2.201   1_565  S
N284        C285   1.345       .  A
N284       Cu290   2.055       .  S
C285        C286   1.376       .  A
C285        H288   1.083       .  S
C286        C287   1.413       .  A
C286        C990   1.517       .  S
C287        H289   1.081       .  S
Cu290       N293   2.049   1_565  S
Cu291       N301   2.199       .  S
Cu292       N294   2.039       .  S
Cu292       N300   2.040       .  S
N293        N294   1.317       .  A
N293        C297   1.343   1_545  A
N294        C295   1.336       .  A
C295        C296   1.378       .  A
C295        H298   1.084       .  S
C296        C297   1.384   1_545  A
C296        C980   1.469   1_545  S
C297        H299   1.080       .  S
N300        N301   1.323       .  A
N300        C304   1.340       .  A
N301        C302   1.370       .  A
C302        C303   1.414       .  A
C302        H305   1.080       .  S
C303        C304   1.375       .  A
C303       C1023   1.512       .  S
C304        H306   1.082       .  S
C307        C308   1.460       .  A
C307        C312   1.464       .  A
C307       C1290   1.549       .  S
C308        C309   1.454       .  A
C308        C970   1.553       .  S
C309        C310   1.456       .  A
C309       C1343   1.548       .  S
C310        C311   1.457       .  A
C310        C993   1.552       .  S
C311        C312   1.459       .  A
C311       C1313   1.556       .  S
C312        C960   1.555       .  S
N313        N314   1.324       .  A
N313        C317   1.362       .  A
N313       Cu321   2.184       .  S
N314        C315   1.348       .  A
N314       Cu320   2.075       .  S
C315        C316   1.387       .  A
C315        H318   1.079       .  S
C316        C317   1.412       .  A
C316        C973   1.530       .  S
C317        H319   1.085       .  S
Cu320       N323   2.075       .  S
Cu321       N331   2.183   1_655  S
Cu322       N324   2.052   1_455  S
Cu322       N330   2.053       .  S
N323        N324   1.320       .  A
N323        C327   1.344       .  A
N324        C325   1.342   1_655  A
C325        C326   1.382   1_455  A
C325        H328   1.082       .  S
C326        C327   1.387       .  A
C326        C950   1.482       .  S
C327        H329   1.082       .  S
N330        N331   1.322       .  A
N330        C334   1.345       .  A
N331        C332   1.365       .  A
C332        C333   1.412       .  A
C332        H335   1.082       .  S
C333        C334   1.380       .  A
C333       C1050   1.519       .  S
C334        H336   1.080       .  S
N337        N338   1.324       .  A
N337        C341   1.365       .  A
N337       Cu345   2.203   1_554  S
N338        C339   1.348       .  A
N338       Cu344   2.067       .  S
C339        C340   1.386       .  A
C339        H342   1.081       .  S
C340        C341   1.417       .  A
C340       C1113   1.535       .  S
C341        H343   1.080       .  S
Cu344       N347   2.065       .  S
Cu345       N355   2.203       .  S
Cu346       N348   2.047       .  S
Cu346       N354   2.050       .  S
N347        N348   1.318   1_554  A
N347        C351   1.341       .  A
N348        C349   1.344       .  A
C349        C350   1.382       .  A
C349        H352   1.082       .  S
C350        C351   1.382   1_556  A
C350        C930   1.473       .  S
C351        H353   1.082       .  S
N354        N355   1.326       .  A
N354        C358   1.344       .  A
N355        C356   1.367       .  A
C356        C357   1.411       .  A
C356        H359   1.084       .  S
C357        C358   1.375       .  A
C357        C940   1.515       .  S
C358        H360   1.080       .  S
C361        C362   1.459       .  A
C361        C366   1.453       .  A
C361        C920   1.563       .  S
C362        C363   1.462       .  A
C362       C1230   1.547       .  S
C363        C364   1.463       .  A
C363        C943   1.556       .  S
C364        C365   1.455       .  A
C364       C1193   1.561       .  S
C365        C366   1.457       .  A
C365        C910   1.547       .  S
C366        C900   1.542       .  S
N367        N368   1.322       .  A
N367        C371   1.363       .  A
N367       Cu375   2.189       .  S
N368        C369   1.345       .  A
N368       Cu374   2.039       .  S
C369        C370   1.379       .  A
C369        H372   1.081       .  S
C370        C371   1.413       .  A
C370        C893   1.517       .  S
C371        H373   1.083       .  S
Cu374       N377   2.040       .  S
Cu375       N385   2.191   1_565  S
Cu376       N378   2.068       .  S
Cu376       N384   2.065       .  S
N377        N378   1.322   1_565  A
N377        C381   1.340       .  A
N378        C379   1.342       .  A
C379        C380   1.380   1_545  A
C379        H382   1.086       .  S
C380        C381   1.375       .  A
C380        C880   1.460       .  S
C381        H383   1.082       .  S
N384        N385   1.322       .  A
N384        C388   1.347       .  A
N385        C386   1.364       .  A
C386        C387   1.417       .  A
C386        H389   1.085       .  S
C387        C388   1.388       .  A
C387        C923   1.537       .  S
C388        H390   1.079       .  S
C391        C392   1.455       .  A
C391        C396   1.458       .  A
C391        C890   1.549       .  S
C392        C393   1.453       .  A
C392       C1400   1.559       .  S
C393        C394   1.463       .  A
C393        C873   1.544       .  S
C394        C395   1.465       .  A
C394       C1203   1.563       .  S
C395        C396   1.465       .  A
C395        C860   1.559       .  S
C396       C1163   1.552       .  S
N397        N398   1.324       .  A
N397        C401   1.364       .  A
N397       Cu405   2.184   1_655  S
N398        C399   1.347       .  A
N398       Cu404   2.070       .  S
C399        C400   1.385       .  A
C399        H402   1.081       .  S
C400        C401   1.412       .  A
C400        C850   1.528       .  S
C401        H403   1.083       .  S
Cu404       N407   2.072       .  S
Cu405       N415   2.182       .  S
Cu406       N408   2.042       .  S
Cu406       N414   2.038       .  S
N407        N408   1.320   1_655  A
N407        C411   1.346       .  A
N408        C409   1.338       .  A
C409        C410   1.376   1_455  A
C409        H412   1.084       .  S
C410        C411   1.385       .  A
C410        C840   1.468       .  S
C411        H413   1.082       .  S
N414        N415   1.320       .  A
N414        C418   1.341       .  A
N415        C416   1.363       .  A
C416        C417   1.417       .  A
C416        H419   1.079       .  S
C417        C418   1.381       .  A
C417        C870   1.524       .  S
C418        H420   1.080       .  S
N421        N422   1.326       .  A
N421        C425   1.365       .  A
N421       Cu429   2.199   1_655  S
N422        C423   1.346       .  A
N422       Cu428   2.057       .  S
C423        C424   1.380       .  A
C423        H426   1.082       .  S
C424        C425   1.412       .  A
C424        C830   1.522       .  S
C425        H427   1.085       .  S
Cu428       N431   2.052       .  S
Cu429       N439   2.197       .  S
Cu430       N432   2.043       .  S
Cu430       N438   2.044       .  S
N431        N432   1.318   1_655  A
N431        C435   1.344       .  A
N432        C433   1.338       .  A
C433        C434   1.380   1_455  A
C433        H436   1.083       .  S
C434        C435   1.384       .  A
C434        C820   1.477       .  S
C435        H437   1.082       .  S
N438        N439   1.324       .  A
N438        C442   1.343       .  A
N439        C440   1.366       .  A
C440        C441   1.414       .  A
C440        H443   1.079       .  S
C441        C442   1.377       .  A
C441        C913   1.517       .  S
C442        H444   1.085       .  S
C445        C446   1.461       .  A
C445        C450   1.457       .  A
C445        C833   1.556       .  S
C446        C447   1.460       .  A
C446       C1373   1.544       .  S
C447        C448   1.456       .  A
C447        C810   1.558       .  S
C448        C449   1.462       .  A
C448       C1220   1.551       .  S
C449        C450   1.454       .  A
C449        C800   1.546       .  S
C450       C1263   1.561       .  S
N451        N452   1.325       .  A
N451        C455   1.367       .  A
N451       Cu459   2.209   1_565  S
N452        C453   1.347       .  A
N452       Cu458   2.064       .  S
C453        C454   1.383       .  A
C453        H456   1.082       .  S
C454        C455   1.416       .  A
C454        C790   1.532       .  S
C455        H457   1.083       .  S
Cu458       N461   2.060       .  S
Cu459       N469   2.208       .  S
Cu460       N462   2.070       .  S
Cu460       N468   2.070       .  S
N461        N462   1.319   1_565  A
N461        C465   1.344       .  A
N462        C463   1.345       .  A
C463        C464   1.385   1_545  A
C463        H466   1.081       .  S
C464        C465   1.383       .  A
C464        C783   1.476       .  S
C465        H467   1.082       .  S
N468        N469   1.324       .  A
N468        C472   1.346       .  A
N469        C470   1.367       .  A
C470        C471   1.420       .  A
C470        H473   1.086       .  S
C471        C472   1.387       .  A
C471        C813   1.540       .  S
C472        H474   1.078       .  S
C475        C476   1.452       .  A
C475        C480   1.456       .  A
C475        C793   1.558       .  S
C476        C477   1.452       .  A
C476       C1350   1.543       .  S
C477        C478   1.463       .  A
C477        C853   1.554       .  S
C478        C479   1.466       .  A
C478       C1253   1.559       .  S
C479        C480   1.466       .  A
C479        C770   1.560       .  S
C480       C1173   1.547       .  S
N481        N482   1.324       .  A
N481        C485   1.369       .  A
N481       Cu489   2.215   1_554  S
N482        C483   1.346       .  A
N482       Cu488   2.064       .  S
C483        C484   1.384       .  A
C483        H486   1.084       .  S
C484        C485   1.421       .  A
C484       C1040   1.539       .  S
C485        H487   1.081       .  S
Cu488       N491   2.063       .  S
Cu489       N499   2.216       .  S
Cu490       N492   2.061       .  S
Cu490       N498   2.062       .  S
N491        N492   1.318   1_554  A
N491        C495   1.344       .  A
N492        C493   1.343       .  A
C493        C494   1.385   1_556  A
C493        H496   1.079       .  S
C494        C495   1.384       .  A
C494        C763   1.473       .  S
C495        H497   1.080       .  S
N498        N499   1.326       .  A
N498        C502   1.347       .  A
N499        C500   1.368       .  A
C500        C501   1.417       .  A
C500        H503   1.083       .  S
C501        C502   1.380       .  A
C501        C863   1.529       .  S
C502        H504   1.082       .  S
N505        N506   1.325       .  A
N505        C509   1.367       .  A
N505       Cu513   2.180   1_554  S
N506        C507   1.345       .  A
N506       Cu512   2.067       .  S
C507        C508   1.377       .  A
C507        H510   1.079       .  S
C508        C509   1.408       .  A
C508       C1013   1.507       .  S
C509        H511   1.068       .  S
Cu512       N515   2.067       .  S
Cu513       N523   2.181       .  S
Cu514       N516   2.044       .  S
Cu514       N522   2.045       .  S
N515        N516   1.319   1_554  A
N515        C519   1.342       .  A
N516        C517   1.343       .  A
C517        C518   1.380       .  A
C517        H520   1.078       .  S
C518        C519   1.384   1_556  A
C518        C753   1.470       .  S
C519        H521   1.083       .  S
N522        N523   1.323       .  A
N522        C526   1.344       .  A
N523        C524   1.363       .  A
C524        C525   1.411       .  A
C524        H527   1.075       .  S
C525        C526   1.377       .  A
C525        C803   1.513       .  S
C526        H528   1.081       .  S
N529        N530   1.321       .  A
N529        C533   1.365       .  A
N529       Cu537   2.191       .  S
N530        C531   1.344       .  A
N530       Cu536   2.052       .  S
C531        C532   1.384       .  A
C531        H534   1.081       .  S
C532        C533   1.417       .  A
C532        C963   1.531       .  S
C533        H535   1.084       .  S
Cu536       N539   2.055       .  S
Cu537       N547   2.192   1_554  S
Cu538       N540   2.092       .  S
Cu538       N546   2.091       .  S
N539        N540   1.322   1_554  A
N539        C543   1.343       .  A
N540        C541   1.348       .  A
C541        C542   1.387   1_556  A
C541        H544   1.082       .  S
C542        C543   1.378       .  A
C542        C740   1.477       .  S
C543        H545   1.082       .  S
N546        N547   1.324       .  A
N546        C550   1.349       .  A
N547        C548   1.366       .  A
C548        C549   1.417       .  A
C548        H551   1.079       .  S
C549        C550   1.392       .  A
C549        C773   1.543       .  S
C550        H552   1.080       .  S
N553        N554   1.325       .  A
N553        C557   1.361       .  A
N553       Cu561   2.160       .  S
N554        C555   1.342       .  A
N554       Cu560   2.050       .  S
C555        C556   1.374       .  A
C555        H558   1.082       .  S
C556        C557   1.401       .  A
C556       C1000   1.496       .  S
C557        H559   1.082       .  S
Cu560       N563   2.046       .  S
Cu561       N571   2.159       .  S
Cu562       N564   2.055       .  S
Cu562       N570   2.055       .  S
N563        N564   1.317       .  A
N563        C567   1.341       .  A
N564        C565   1.343       .  A
C565        C566   1.383       .  A
C565        H568   1.085       .  S
C566        C567   1.380       .  A
C566        C730   1.469       .  S
C567        H569   1.080       .  S
N570        N571   1.325       .  A
N570        C574   1.340       .  A
N571        C572   1.362       .  A
C572        C573   1.403       .  A
C572        H575   1.081       .  S
C573        C574   1.375       .  A
C573       C1093   1.500       .  S
C574        H576   1.083       .  S
N577        N578   1.321       .  A
N577        C581   1.361       .  A
N577       Cu585   2.168       .  S
N578        C579   1.344       .  A
N578       Cu584   2.059       .  S
C579        C580   1.386       .  A
C579        H582   1.082       .  S
C580        C581   1.411       .  A
C580       C1033   1.524       .  S
C581        H583   1.085       .  S
Cu584       N587   2.060       .  S
Cu585       N595   2.170       .  S
Cu586       N588   2.047       .  S
Cu586       N594   2.044       .  S
N587        N588   1.322       .  A
N587        C591   1.340       .  A
N588        C589   1.343       .  A
C589        C590   1.377       .  A
C589        H592   1.083       .  S
C590        C591   1.377       .  A
C590        C720   1.460       .  S
C591        H593   1.082       .  S
N594        N595   1.323       .  A
N594        C598   1.344       .  A
N595        C596   1.361       .  A
C596        C597   1.408       .  A
C596        H599   1.082       .  S
C597        C598   1.378       .  A
C597       C1100   1.511       .  S
C598        H600   1.082       .  S
N601        N602   1.324       .  A
N601        C605   1.363       .  A
N601       Cu609   2.170       .  S
N602        C603   1.344       .  A
N602       Cu608   2.056       .  S
C603        C604   1.377       .  A
C603        H606   1.083       .  S
C604        C605   1.405       .  A
C604       C1083   1.504       .  S
C605        H607   1.079       .  S
Cu608       N611   2.054       .  S
Cu609       N619   2.171       .  S
Cu610       N612   2.051       .  S
Cu610       N618   2.054       .  S
N611        N612   1.319       .  A
N611        C615   1.339       .  A
N612        C613   1.344       .  A
C613        C614   1.382       .  A
C613        H616   1.079       .  S
C614        C615   1.380       .  A
C614        C713   1.469       .  S
C615        H617   1.081       .  S
N618        N619   1.325       .  A
N618        C622   1.345       .  A
N619        C620   1.360       .  A
C620        C621   1.406       .  A
C620        H623   1.081       .  S
C621        C622   1.378       .  A
C621        C903   1.509       .  S
C622        H624   1.081       .  S
O625       Cu633   2.009       .  S
O625        C635   1.278       .  A
O626       Cu633   2.011   1_565  S
O626        C636   1.277   1_655  A
O627       Cu633   2.003   1_455  S
O627        C637   1.277       .  A
O628       Cu633   2.006       .  S
O628        C638   1.277       .  A
O629       Cu634   1.982       .  S
O629        C638   1.273       .  A
O630       Cu634   1.978   1_455  S
O630        C637   1.274       .  A
O631       Cu634   2.013   1_465  S
O631        C636   1.279       .  A
O632       Cu634   2.006       .  S
O632        C635   1.276       .  A
Cu633      Cu634   2.370       .  S
C635       C1390   1.473       .  S
C636       C1423   1.478       .  S
C637        C710   1.470       .  S
C638       C1363   1.491   1_545  S
O639       Cu647   2.019   1_556  S
O639        C649   1.279   1_545  A
O640       Cu647   2.015       .  S
O640        C650   1.279       .  A
O641       Cu647   1.996   1_565  S
O641        C651   1.276       .  A
O642       Cu647   2.007   1_556  S
O642        C652   1.278       .  A
O643       Cu648   1.986   1_556  S
O643        C652   1.275       .  A
O644       Cu648   1.991   1_565  S
O644        C651   1.276       .  A
O645       Cu648   1.976       .  S
O645        C650   1.273       .  A
O646       Cu648   1.975   1_556  S
O646        C649   1.271   1_545  A
Cu647      Cu648   2.370       .  S
C649       C1183   1.495       .  S
C650        C733   1.464       .  S
C651       C1333   1.469       .  S
C652       C1243   1.474       .  S
O653       Cu661   2.023   1_554  S
O653        C663   1.280       .  A
O654       Cu661   2.013   1_455  S
O654        C664   1.276       .  A
O655       Cu661   2.002   1_454  S
O655        C665   1.276       .  A
O656       Cu661   2.004       .  S
O656        C666   1.277       .  A
O657       Cu662   1.988       .  S
O657        C666   1.276       .  A
O658       Cu662   1.986   1_454  S
O658        C665   1.275       .  A
O659       Cu662   1.998   1_455  S
O659        C664   1.277       .  A
O660       Cu662   1.995   1_554  S
O660        C663   1.274       .  A
Cu661      Cu662   2.374       .  S
C663       C1303   1.471       .  S
C664       C1213   1.466       .  S
C665        C723   1.481       .  S
C666       C1273   1.475       .  S
O667       Cu675   2.014       .  S
O667        C677   1.280   1_554  A
O668       Cu675   2.022       .  S
O668        C678   1.278       .  A
O669       Cu675   2.011       .  S
O669        C679   1.276       .  A
O670       Cu675   2.001       .  S
O670        C680   1.277   1_554  A
O671       Cu676   2.002       .  S
O671        C680   1.276       .  A
O672       Cu676   2.010       .  S
O672        C679   1.278   1_556  A
O673       Cu676   1.987       .  S
O673        C678   1.276   1_556  A
O674       Cu676   1.993       .  S
O674        C677   1.274       .  A
Cu675      Cu676   2.372   1_554  S
C677        C933   1.475       .  S
C678        C743   1.492       .  S
C679        C760   1.470       .  S
C680        C750   1.473       .  S
O681       Cu689   1.990       .  S
O681        C691   1.273   1_455  A
O682       Cu689   1.989       .  S
O682        C692   1.275   1_455  A
O683       Cu689   2.011       .  S
O683        C693   1.277   1_455  A
O684       Cu689   2.005       .  S
O684        C694   1.278   1_455  A
O685       Cu690   1.993       .  S
O685        C694   1.275       .  A
O686       Cu690   2.012       .  S
O686        C693   1.278       .  A
O687       Cu690   2.015       .  S
O687        C692   1.279       .  A
O688       Cu690   2.007       .  S
O688        C691   1.277       .  A
Cu689      Cu690   2.367   1_455  S
C691        C953   1.502       .  S
C692        C823   1.476       .  S
C693       C1133   1.477       .  S
C694        C843   1.476       .  S
O695       Cu703   2.013       .  S
O695        C705   1.278       .  A
O696       Cu703   2.005       .  S
O696        C706   1.278       .  A
O697       Cu703   1.986       .  S
O697        C707   1.275       .  A
O698       Cu703   1.985       .  S
O698        C708   1.274       .  A
O699       Cu704   1.990       .  S
O699        C708   1.277   1_545  A
O700       Cu704   1.985       .  S
O700        C707   1.276   1_545  A
O701       Cu704   1.981       .  S
O701        C706   1.274   1_545  A
O702       Cu704   1.989       .  S
O702        C705   1.275   1_545  A
Cu703      Cu704   2.377   1_565  S
C705        C780   1.468       .  S
C706       C1063   1.466       .  S
C707        C983   1.465       .  S
C708        C883   1.467       .  S
C709        C710   1.409       .  A
C709        C714   1.406       .  A
C709       Br716   1.933       .  S
C710        C711   1.414       .  A
C711        C712   1.401       .  A
C711       Br718   1.936   1_545  S
C712        C713   1.404       .  A
C712       Br717   1.932       .  S
C713        C714   1.414       .  A
C714       Br715   1.933       .  S
C719        C720   1.400       .  A
C719        C724   1.401       .  A
C719       Br726   1.933       .  S
C720        C721   1.404       .  A
C721        C722   1.405       .  A
C721       Br728   1.933       .  S
C722        C723   1.420       .  A
C722       Br727   1.935       .  S
C723        C724   1.420       .  A
C724       Br725   1.935   1_554  S
C729        C730   1.413       .  A
C729        C734   1.404       .  A
C729       Br736   1.932       .  S
C730        C731   1.405       .  A
C731        C732   1.403       .  A
C731       Br738   1.930       .  S
C732        C733   1.411       .  A
C732       Br737   1.931       .  S
C733        C734   1.406       .  A
C734       Br735   1.932       .  S
C739        C740   1.410       .  A
C739        C744   1.411       .  A
C739       Br746   1.931       .  S
C740        C741   1.405       .  A
C741        C742   1.404       .  A
C741       Br748   1.930   1_554  S
C742        C743   1.416       .  A
C742       Br747   1.934   1_554  S
C743        C744   1.418       .  A
C744       Br745   1.933       .  S
C749        C750   1.410   1_554  A
C749        C754   1.403       .  A
C749       Br756   1.925       .  S
C750        C751   1.411       .  A
C751        C752   1.407       .  A
C751       Br758   1.933       .  S
C752        C753   1.411       .  A
C752       Br757   1.931       .  S
C753        C754   1.405   1_556  A
C754       Br755   1.931       .  S
C759        C760   1.408       .  A
C759        C764   1.410       .  A
C759       Br766   1.923       .  S
C760        C761   1.404       .  A
C761        C762   1.401       .  A
C761       Br768   1.927       .  S
C762        C763   1.411       .  A
C762       Br767   1.932       .  S
C763        C764   1.408       .  A
C764       Br765   1.927       .  S
C769        C770   1.427       .  A
C769        C774   1.428       .  A
C769       Br776   1.911       .  S
C770        C771   1.425       .  A
C771        C772   1.431       .  A
C771       Br778   1.914       .  S
C772        C773   1.425       .  A
C772       Br777   1.935       .  S
C773        C774   1.416       .  A
C774       Br775   1.931       .  S
C779        C780   1.409       .  A
C779        C784   1.407   1_565  A
C779       Br786   1.931   1_565  S
C780        C781   1.407       .  A
C781        C782   1.405       .  A
C781       Br788   1.932       .  S
C782        C783   1.414       .  A
C782       Br787   1.932       .  S
C783        C784   1.408   1_565  A
C784       Br785   1.928       .  S
C789        C790   1.410       .  A
C789        C794   1.428       .  A
C789       Br796   1.935       .  S
C790        C791   1.423       .  A
C791        C792   1.432       .  A
C791       Br798   1.933       .  S
C792        C793   1.424       .  A
C792       Br797   1.917       .  S
C793        C794   1.431       .  A
C794       Br795   1.911       .  S
C799        C800   1.427       .  A
C799        C804   1.415       .  A
C799       Br806   1.903       .  S
C800        C801   1.425       .  A
C801        C802   1.430       .  A
C801       Br808   1.919       .  S
C802        C803   1.420       .  A
C802       Br807   1.932       .  S
C803        C804   1.402       .  A
C804       Br805   1.937       .  S
C809        C810   1.424       .  A
C809        C814   1.430       .  A
C809       Br816   1.918       .  S
C810        C811   1.430       .  A
C811        C812   1.428       .  A
C811       Br818   1.908       .  S
C812        C813   1.414       .  A
C812       Br817   1.933       .  S
C813        C814   1.425       .  A
C814       Br815   1.934       .  S
C819        C820   1.419       .  A
C819        C824   1.409       .  A
C819       Br826   1.933       .  S
C820        C821   1.406   1_655  A
C821        C822   1.403       .  A
C821       Br828   1.934       .  S
C822        C823   1.414   1_455  A
C822       Br827   1.933       .  S
C823        C824   1.408       .  A
C824       Br825   1.932       .  S
C829        C830   1.404       .  A
C829        C834   1.423       .  A
C829       Br836   1.938       .  S
C830        C831   1.420       .  A
C831        C832   1.432       .  A
C831       Br838   1.932       .  S
C832        C833   1.426       .  A
C832       Br837   1.920       .  S
C833        C834   1.432       .  A
C834       Br835   1.900       .  S
C839        C840   1.409       .  A
C839        C844   1.406       .  A
C839       Br846   1.933       .  S
C840        C841   1.406   1_655  A
C841        C842   1.404       .  A
C841       Br848   1.930       .  S
C842        C843   1.412   1_455  A
C842       Br847   1.933       .  S
C843        C844   1.414       .  A
C844       Br845   1.933       .  S
C849        C850   1.425       .  A
C849        C854   1.430       .  A
C849       Br856   1.934       .  S
C850        C851   1.409       .  A
C851        C852   1.422       .  A
C851       Br858   1.936       .  S
C852        C853   1.428       .  A
C852       Br857   1.908       .  S
C853        C854   1.423       .  A
C854       Br855   1.919       .  S
C859        C860   1.432       .  A
C859        C864   1.422       .  A
C859       Br866   1.900       .  S
C860        C861   1.423       .  A
C861        C862   1.434       .  A
C861       Br868   1.918       .  S
C862        C863   1.422       .  A
C862       Br867   1.929       .  S
C863        C864   1.405       .  A
C864       Br865   1.937       .  S
C869        C870   1.408       .  A
C869        C874   1.416       .  A
C869       Br876   1.933       .  S
C870        C871   1.425       .  A
C871        C872   1.423       .  A
C871       Br878   1.930       .  S
C872        C873   1.416       .  A
C872       Br877   1.914       .  S
C873        C874   1.425       .  A
C874       Br875   1.893       .  S
C879        C880   1.404   1_545  A
C879        C884   1.403   1_545  A
C879       Br886   1.929       .  S
C880        C881   1.405       .  A
C881        C882   1.402       .  A
C881       Br888   1.934       .  S
C882        C883   1.416       .  A
C882       Br887   1.936       .  S
C883        C884   1.410       .  A
C884       Br885   1.931   1_565  S
C889        C890   1.424       .  A
C889        C894   1.431       .  A
C889       Br896   1.917       .  S
C890        C891   1.426       .  A
C891        C892   1.416       .  A
C891       Br898   1.898       .  S
C892        C893   1.403       .  A
C892       Br897   1.937       .  S
C893        C894   1.421       .  A
C894       Br895   1.931       .  S
C899        C900   1.427       .  A
C899        C904   1.416       .  A
C899       Br906   1.901       .  S
C900        C901   1.422       .  A
C901        C902   1.427       .  A
C901       Br908   1.917       .  S
C902        C903   1.417       .  A
C902       Br907   1.932       .  S
C903        C904   1.403       .  A
C904       Br905   1.938       .  S
C909        C910   1.427       .  A
C909        C914   1.419       .  A
C909       Br916   1.901       .  S
C910        C911   1.422       .  A
C911        C912   1.430       .  A
C911       Br918   1.918       .  S
C912        C913   1.420       .  A
C912       Br917   1.931       .  S
C913        C914   1.404       .  A
C914       Br915   1.936       .  S
C919        C920   1.424       .  A
C919        C924   1.434       .  A
C919       Br926   1.919       .  S
C920        C921   1.430       .  A
C921        C922   1.423       .  A
C921       Br928   1.903       .  S
C922        C923   1.410       .  A
C922       Br927   1.936       .  S
C923        C924   1.428       .  A
C924       Br925   1.933       .  S
C929        C930   1.404       .  A
C929        C934   1.404       .  A
C929       Br936   1.929   1_556  S
C930        C931   1.414       .  A
C931        C932   1.406       .  A
C931       Br938   1.933       .  S
C932        C933   1.411       .  A
C932       Br937   1.931       .  S
C933        C934   1.412       .  A
C934       Br935   1.931   1_556  S
C939        C940   1.414       .  A
C939        C944   1.431       .  A
C939       Br946   1.930       .  S
C940        C941   1.401       .  A
C941        C942   1.421       .  A
C941       Br948   1.936       .  S
C942        C943   1.432       .  A
C942       Br947   1.901       .  S
C943        C944   1.427       .  A
C944       Br945   1.916       .  S
C949        C950   1.410   1_455  A
C949        C954   1.409       .  A
C949       Br956   1.937       .  S
C950        C951   1.407       .  A
C951        C952   1.408       .  A
C951       Br958   1.936       .  S
C952        C953   1.424       .  A
C952       Br957   1.937       .  S
C953        C954   1.426   1_655  A
C954       Br955   1.941       .  S
C959        C960   1.428       .  A
C959        C964   1.424       .  A
C959       Br966   1.904       .  S
C960        C961   1.425       .  A
C961        C962   1.426       .  A
C961       Br968   1.914       .  S
C962        C963   1.422       .  A
C962       Br967   1.934       .  S
C963        C964   1.410       .  A
C964       Br965   1.932       .  S
C969        C970   1.426       .  A
C969        C974   1.430       .  A
C969       Br976   1.918       .  S
C970        C971   1.426       .  A
C971        C972   1.419       .  A
C971       Br978   1.909       .  S
C972        C973   1.409       .  A
C972       Br977   1.933       .  S
C973        C974   1.425       .  A
C974       Br975   1.934       .  S
C979        C980   1.407   1_545  A
C979        C984   1.401       .  A
C979       Br986   1.932       .  S
C980        C981   1.417       .  A
C981        C982   1.403       .  A
C981       Br988   1.935       .  S
C982        C983   1.408       .  A
C982       Br987   1.936       .  S
C983        C984   1.411   1_565  A
C984       Br985   1.934       .  S
C989        C990   1.419       .  A
C989        C994   1.432       .  A
C989       Br996   1.929       .  S
C990        C991   1.401       .  A
C991        C992   1.419       .  A
C991       Br998   1.937       .  S
C992        C993   1.429       .  A
C992       Br997   1.895       .  S
C993        C994   1.423       .  A
C994       Br995   1.917       .  S
C999       C1000   1.406       .  A
C999       C1004   1.420       .  A
C999      Br1006   1.926       .  S
C1000      C1001   1.402       .  A
C1001      C1002   1.418       .  A
C1001     Br1008   1.934       .  S
C1002      C1003   1.433       .  A
C1002     Br1007   1.908       .  S
C1003      C1004   1.429       .  A
C1004     Br1005   1.922       .  S
C1009      C1010   1.429       .  A
C1009      C1014   1.419       .  A
C1009     Br1016   1.898       .  S
C1010      C1011   1.447       .  A
C1011      C1012   1.431       .  A
C1011     Br1018   1.932       .  S
C1012      C1013   1.405       .  A
C1012     Br1017   1.931       .  S
C1013      C1014   1.401       .  A
C1014     Br1015   1.930       .  S
C1019      C1020   1.420       .  A
C1019      C1024   1.413       .  A
C1019     Br1026   1.924       .  S
C1020      C1021   1.435       .  A
C1021      C1022   1.433       .  A
C1021     Br1028   1.925       .  S
C1022      C1023   1.415       .  A
C1022     Br1027   1.930       .  S
C1023      C1024   1.407       .  A
C1024     Br1025   1.928       .  S
C1029      C1030   1.425       .  A
C1029      C1034   1.423       .  A
C1029     Br1036   1.917       .  S
C1030      C1031   1.425       .  A
C1031      C1032   1.420       .  A
C1031     Br1038   1.916       .  S
C1032      C1033   1.412       .  A
C1032     Br1037   1.930       .  S
C1033      C1034   1.421       .  A
C1034     Br1035   1.936       .  S
C1039      C1040   1.413       .  A
C1039      C1044   1.429       .  A
C1039     Br1046   1.933       .  S
C1040      C1041   1.426       .  A
C1041      C1042   1.432       .  A
C1041     Br1048   1.934       .  S
C1042      C1043   1.424       .  A
C1042     Br1047   1.919       .  S
C1043      C1044   1.430       .  A
C1044     Br1045   1.916       .  S
C1049      C1050   1.417       .  A
C1049      C1054   1.429       .  A
C1049     Br1056   1.934       .  S
C1050      C1051   1.404       .  A
C1051      C1052   1.420       .  A
C1051     Br1058   1.933       .  S
C1052      C1053   1.430       .  A
C1052     Br1057   1.907       .  S
C1053      C1054   1.431       .  A
C1054     Br1055   1.921       .  S
C1059      C1060   1.405   1_545  A
C1059      C1064   1.404       .  A
C1059     Br1066   1.930       .  S
C1060      C1061   1.409       .  A
C1061      C1062   1.402       .  A
C1061     Br1068   1.933       .  S
C1062      C1063   1.410       .  A
C1062     Br1067   1.934       .  S
C1063      C1064   1.412   1_565  A
C1064     Br1065   1.933       .  S
C1069      C1070   1.425       .  A
C1069      C1074   1.418       .  A
C1069     Br1076   1.906       .  S
C1070      C1071   1.426       .  A
C1071      C1072   1.427       .  A
C1071     Br1078   1.915       .  S
C1072      C1073   1.417       .  A
C1072     Br1077   1.933       .  S
C1073      C1074   1.405       .  A
C1074     Br1075   1.932       .  S
C1079      C1080   1.419       .  A
C1079      C1084   1.411       .  A
C1079     Br1086   1.899       .  S
C1080      C1081   1.459       .  A
C1081      C1082   1.429       .  A
C1081     Br1088   1.944       .  S
C1082      C1083   1.407       .  A
C1082     Br1087   1.938       .  S
C1083      C1084   1.402       .  A
C1084     Br1085   1.923       .  S
C1089      C1090   1.435       .  A
C1089      C1094   1.419       .  A
C1089     Br1096   1.914       .  S
C1090      C1091   1.434       .  A
C1091      C1092   1.420       .  A
C1091     Br1098   1.917       .  S
C1092      C1093   1.406       .  A
C1092     Br1097   1.938       .  S
C1093      C1094   1.400       .  A
C1094     Br1095   1.934       .  S
C1099      C1100   1.421       .  A
C1099      C1104   1.426       .  A
C1099     Br1106   1.931       .  S
C1100      C1101   1.404       .  A
C1101      C1102   1.415       .  A
C1101     Br1108   1.937       .  S
C1102      C1103   1.427       .  A
C1102     Br1107   1.905       .  S
C1103      C1104   1.418       .  A
C1104     Br1105   1.919       .  S
C1109      C1110   1.426       .  A
C1109      C1114   1.424       .  A
C1109     Br1116   1.911       .  S
C1110      C1111   1.418       .  A
C1111      C1112   1.431       .  A
C1111     Br1118   1.924       .  S
C1112      C1113   1.428       .  A
C1112     Br1117   1.930       .  S
C1113      C1114   1.414       .  A
C1114     Br1115   1.935       .  S
C1119      C1120   1.402       .  A
C1119      C1124   1.413       .  A
C1119     Br1126   1.926       .  S
C1120      C1121   1.408       .  A
C1121      C1122   1.426       .  A
C1121     Br1128   1.935       .  S
C1122      C1123   1.450       .  A
C1122     Br1127   1.937       .  S
C1123      C1124   1.418       .  A
C1124     Br1125   1.902       .  S
C1129      C1130   1.410       .  A
C1129      C1134   1.411       .  A
C1129     Br1136   1.929   1_655  S
C1130      C1131   1.410       .  A
C1131      C1132   1.405       .  A
C1131     Br1138   1.934       .  S
C1132      C1133   1.411       .  A
C1132     Br1137   1.930       .  S
C1133      C1134   1.410       .  A
C1134     Br1135   1.928   1_655  S
C1139      C1140   1.416       .  A
C1139      C1144   1.421       .  A
C1139     Br1146   1.917       .  S
C1140      C1141   1.428       .  A
C1141      C1142   1.425       .  A
C1141     Br1148   1.943       .  S
C1142      C1143   1.412       .  A
C1142     Br1147   1.927       .  S
C1143      C1144   1.416       .  A
C1144     Br1145   1.932       .  S
C1149      C1150   1.404       .  A
C1149      C1154   1.422       .  A
C1149     Br1156   1.932       .  S
C1150      C1151   1.414       .  A
C1151      C1152   1.429       .  A
C1151     Br1158   1.937       .  S
C1152      C1153   1.438       .  A
C1152     Br1157   1.925       .  S
C1153      C1154   1.433       .  A
C1154     Br1155   1.918       .  S
C1159      C1160   1.422       .  A
C1159      C1164   1.430       .  A
C1159     Br1166   1.934       .  S
C1160      C1161   1.408       .  A
C1161      C1162   1.420       .  A
C1161     Br1168   1.934       .  S
C1162      C1163   1.427       .  A
C1162     Br1167   1.908       .  S
C1163      C1164   1.425       .  A
C1164     Br1165   1.915       .  S
C1169      C1170   1.412       .  A
C1169      C1174   1.421       .  A
C1169     Br1176   1.936       .  S
C1170      C1171   1.428       .  A
C1171      C1172   1.428       .  A
C1171     Br1178   1.931       .  S
C1172      C1173   1.417       .  A
C1172     Br1177   1.916       .  S
C1173      C1174   1.426       .  A
C1174     Br1175   1.904       .  S
C1179      C1180   1.407       .  A
C1179      C1184   1.408       .  A
C1179     Br1186   1.933       .  S
C1180      C1181   1.405       .  A
C1181      C1182   1.404       .  A
C1181     Br1188   1.938       .  S
C1182      C1183   1.427       .  A
C1182     Br1187   1.940       .  S
C1183      C1184   1.419       .  A
C1184     Br1185   1.934       .  S
C1189      C1190   1.419       .  A
C1189      C1194   1.434       .  A
C1189     Br1196   1.929       .  S
C1190      C1191   1.402       .  A
C1191      C1192   1.423       .  A
C1191     Br1198   1.938       .  S
C1192      C1193   1.435       .  A
C1192     Br1197   1.899       .  S
C1193      C1194   1.425       .  A
C1194     Br1195   1.918       .  S
C1199      C1200   1.415       .  A
C1199      C1204   1.431       .  A
C1199     Br1206   1.933       .  S
C1200      C1201   1.423       .  A
C1201      C1202   1.433       .  A
C1201     Br1208   1.933       .  S
C1202      C1203   1.424       .  A
C1202     Br1207   1.911       .  S
C1203      C1204   1.429       .  A
C1204     Br1205   1.905       .  S
C1209      C1210   1.409       .  A
C1209      C1214   1.408       .  A
C1209     Br1216   1.926       .  S
C1210      C1211   1.412       .  A
C1211      C1212   1.403       .  A
C1211     Br1218   1.930       .  S
C1212      C1213   1.403       .  A
C1212     Br1217   1.926       .  S
C1213      C1214   1.405       .  A
C1214     Br1215   1.925   1_455  S
C1219      C1220   1.424       .  A
C1219      C1224   1.427       .  A
C1219     Br1226   1.919       .  S
C1220      C1221   1.432       .  A
C1221      C1222   1.423       .  A
C1221     Br1228   1.905       .  S
C1222      C1223   1.406       .  A
C1222     Br1227   1.936       .  S
C1223      C1224   1.419       .  A
C1224     Br1225   1.933       .  S
C1229      C1230   1.429       .  A
C1229      C1234   1.416       .  A
C1229     Br1236   1.896       .  S
C1230      C1231   1.425       .  A
C1231      C1232   1.429       .  A
C1231     Br1238   1.919       .  S
C1232      C1233   1.417       .  A
C1232     Br1237   1.931       .  S
C1233      C1234   1.401       .  A
C1234     Br1235   1.939       .  S
C1239      C1240   1.410       .  A
C1239      C1244   1.404       .  A
C1239     Br1246   1.933       .  S
C1240      C1241   1.418       .  A
C1241      C1242   1.406       .  A
C1241     Br1248   1.934       .  S
C1242      C1243   1.409       .  A
C1242     Br1247   1.935       .  S
C1243      C1244   1.412       .  A
C1244     Br1245   1.934   1_556  S
C1249      C1250   1.420       .  A
C1249      C1254   1.435       .  A
C1249     Br1256   1.930       .  S
C1250      C1251   1.403       .  A
C1251      C1252   1.420       .  A
C1251     Br1258   1.937       .  S
C1252      C1253   1.431       .  A
C1252     Br1257   1.898       .  S
C1253      C1254   1.427       .  A
C1254     Br1255   1.918       .  S
C1259      C1260   1.401       .  A
C1259      C1264   1.422       .  A
C1259     Br1266   1.937       .  S
C1260      C1261   1.415       .  A
C1261      C1262   1.432       .  A
C1261     Br1268   1.930       .  S
C1262      C1263   1.430       .  A
C1262     Br1267   1.917       .  S
C1263      C1264   1.433       .  A
C1264     Br1265   1.898       .  S
C1269      C1270   1.405       .  A
C1269      C1274   1.407       .  A
C1269     Br1276   1.930       .  S
C1270      C1271   1.411       .  A
C1271      C1272   1.401       .  A
C1271     Br1278   1.936       .  S
C1272      C1273   1.413       .  A
C1272     Br1277   1.935       .  S
C1273      C1274   1.416       .  A
C1274     Br1275   1.934   1_556  S
C1279      C1280   1.420       .  A
C1279      C1284   1.432       .  A
C1279     Br1286   1.922       .  S
C1280      C1281   1.421       .  A
C1281      C1282   1.416       .  A
C1281     Br1288   1.932       .  S
C1282      C1283   1.415       .  A
C1282     Br1287   1.921       .  S
C1283      C1284   1.419       .  A
C1284     Br1285   1.918       .  S
C1289      C1290   1.423       .  A
C1289      C1294   1.427       .  A
C1289     Br1296   1.918       .  S
C1290      C1291   1.425       .  A
C1291      C1292   1.420       .  A
C1291     Br1298   1.911       .  S
C1292      C1293   1.413       .  A
C1292     Br1297   1.929       .  S
C1293      C1294   1.427       .  A
C1294     Br1295   1.934       .  S
C1299      C1300   1.410       .  A
C1299      C1304   1.410       .  A
C1299     Br1306   1.928       .  S
C1300      C1301   1.411       .  A
C1301      C1302   1.402       .  A
C1301     Br1308   1.933       .  S
C1302      C1303   1.406       .  A
C1302     Br1307   1.927       .  S
C1303      C1304   1.408       .  A
C1304     Br1305   1.927   1_655  S
C1309      C1310   1.409       .  A
C1309      C1314   1.422       .  A
C1309     Br1316   1.939       .  S
C1310      C1311   1.427       .  A
C1311      C1312   1.434       .  A
C1311     Br1318   1.932       .  S
C1312      C1313   1.421       .  A
C1312     Br1317   1.917       .  S
C1313      C1314   1.427       .  A
C1314     Br1315   1.896       .  S
C1319      C1320   1.416       .  A
C1319      C1324   1.423       .  A
C1319     Br1326   1.933       .  S
C1320      C1321   1.429       .  A
C1321      C1322   1.425       .  A
C1321     Br1328   1.932       .  S
C1322      C1323   1.416       .  A
C1322     Br1327   1.917       .  S
C1323      C1324   1.425       .  A
C1324     Br1325   1.912       .  S
C1329      C1330   1.407       .  A
C1329      C1334   1.403       .  A
C1329     Br1336   1.932       .  S
C1330      C1331   1.403       .  A
C1331      C1332   1.403       .  A
C1331     Br1338   1.929       .  S
C1332      C1333   1.412       .  A
C1332     Br1337   1.930   1_554  S
C1333      C1334   1.413       .  A
C1334     Br1335   1.934       .  S
C1339      C1340   1.418       .  A
C1339      C1344   1.423       .  A
C1339     Br1346   1.934       .  S
C1340      C1341   1.406       .  A
C1341      C1342   1.420       .  A
C1341     Br1348   1.935       .  S
C1342      C1343   1.429       .  A
C1342     Br1347   1.904       .  S
C1343      C1344   1.423       .  A
C1344     Br1345   1.914       .  S
C1349      C1350   1.425       .  A
C1349      C1354   1.414       .  A
C1349     Br1356   1.901       .  S
C1350      C1351   1.421       .  A
C1351      C1352   1.424       .  A
C1351     Br1358   1.918       .  S
C1352      C1353   1.422       .  A
C1352     Br1357   1.932       .  S
C1353      C1354   1.406       .  A
C1354     Br1355   1.936       .  S
C1359      C1360   1.406       .  A
C1359      C1364   1.404       .  A
C1359     Br1366   1.934       .  S
C1360      C1361   1.405       .  A
C1361      C1362   1.404       .  A
C1361     Br1368   1.932       .  S
C1362      C1363   1.417       .  A
C1362     Br1367   1.933   1_565  S
C1363      C1364   1.421       .  A
C1364     Br1365   1.936       .  S
C1369      C1370   1.411       .  A
C1369      C1374   1.425       .  A
C1369     Br1376   1.933       .  S
C1370      C1371   1.401       .  A
C1371      C1372   1.417       .  A
C1371     Br1378   1.936       .  S
C1372      C1373   1.429       .  A
C1372     Br1377   1.905       .  S
C1373      C1374   1.428       .  A
C1374     Br1375   1.916       .  S
C1379      C1380   1.402       .  A
C1379      C1384   1.416       .  A
C1379     Br1386   1.937       .  S
C1380      C1381   1.415       .  A
C1381      C1382   1.425       .  A
C1381     Br1388   1.931       .  S
C1382      C1383   1.425       .  A
C1382     Br1387   1.920       .  S
C1383      C1384   1.430       .  A
C1384     Br1385   1.907       .  S
C1389      C1390   1.411       .  A
C1389      C1394   1.409       .  A
C1389     Br1396   1.929   1_655  S
C1390      C1391   1.407       .  A
C1391      C1392   1.403       .  A
C1391     Br1398   1.932       .  S
C1392      C1393   1.414       .  A
C1392     Br1397   1.935       .  S
C1393      C1394   1.408       .  A
C1394     Br1395   1.929       .  S
C1399      C1400   1.431       .  A
C1399      C1404   1.425       .  A
C1399     Br1406   1.910       .  S
C1400      C1401   1.421       .  A
C1401      C1402   1.433       .  A
C1401     Br1408   1.918       .  S
C1402      C1403   1.425       .  A
C1402     Br1407   1.930       .  S
C1403      C1404   1.409       .  A
C1404     Br1405   1.934       .  S
C1409      C1410   1.424       .  A
C1409      C1414   1.433       .  A
C1409     Br1416   1.920       .  S
C1410      C1411   1.428       .  A
C1411      C1412   1.424       .  A
C1411     Br1418   1.905       .  S
C1412      C1413   1.413       .  A
C1412     Br1417   1.932       .  S
C1413      C1414   1.429       .  A
C1414     Br1415   1.931       .  S
C1419      C1420   1.410       .  A
C1419      C1424   1.409       .  A
C1419     Br1426   1.931       .  S
C1420      C1421   1.409       .  A
C1421      C1422   1.409       .  A
C1421     Br1428   1.927       .  S
C1422      C1423   1.408       .  A
C1422     Br1427   1.930   1_455  S
C1423      C1424   1.412       .  A
C1424     Br1425   1.932       .  S
