geometry optimzed in LAMMPS
_audit_creation_date              2020-12-01 
_audit_creation_method            'lammps2cif' 
_symmetry_space_group_name_H-M    'P1' 
_symmetry_Int_Tables_number       1 
_symmetry_cell_setting            triclinic 
loop_ 
_symmetry_equiv_pos_as_xyz 
  x,y,z 
_cell_length_a                    26.89542946 
_cell_length_b                    26.896077639542842 
_cell_length_c                    26.509180404991916 
_cell_angle_alpha                 90.00002543055855 
_cell_angle_beta                  90.00293213895146 
_cell_angle_gamma                 84.38138254550488 
loop_ 
_atom_site_label 
_atom_site_type_symbol 
_atom_site_fract_x 
_atom_site_fract_y 
_atom_site_fract_z 
_atom_site_charge 
N1          N  0.08589560  0.48975785  0.40453109    -0.07000
N2          N  0.11638001  0.00259224  0.36923470    -0.59100
N3          N  0.03133284  0.38903920  0.44086861    -0.06700
N4          N  0.03312452  0.34073007  0.43148280    -0.61300
N5          N  0.00726077  0.41476996  0.40467080    -0.06300
N6          N  0.49362806  0.38463587  0.36967633    -0.59100
N7          N  0.11093661  0.46487947  0.44069055    -0.06000
N8          N  0.15939191  0.46150071  0.43134732    -0.61600
C9          C  0.16206335  0.98524093  0.38683026     0.95200
C10         C  0.50961625  0.33855314  0.38712051     0.94900
N11         N  0.01048205  0.41439955  0.09521226    -0.07200
N12         N  0.49718125  0.38370075  0.13015370    -0.59700
N13         N  0.11090958  0.46939701  0.05889827    -0.05300
N14         N  0.15920293  0.46735587  0.06842465    -0.61000
N15         N  0.08517356  0.49342565  0.09510655    -0.07200
N16         N  0.11551378  0.00758467  0.13061480    -0.60000
N17         N  0.03543443  0.38942774  0.05906577    -0.05000
N18         N  0.03894389  0.34096131  0.06844848    -0.61000
Mn19       Mn  0.07233228  0.42580276  0.49971536     1.18400
C20         C  0.51472673  0.33797165  0.11282679     0.97300
C21         C  0.16163658  0.99175368  0.11316336     0.97900
N22         N  0.42079375  0.00357928  0.40511712    -0.07200
N23         N  0.39101959  0.48864008  0.37013417    -0.63500
N24         N  0.47467417  0.10486653  0.44121677    -0.06000
N25         N  0.47318509  0.15317921  0.43168703    -0.64200
N26         N  0.49902896  0.07897216  0.40529186    -0.06700
N27         N  0.01485574  0.10866067  0.36982815    -0.63800
N28         N  0.39538672  0.02851222  0.44100885    -0.05600
N29         N  0.34694814  0.03091016  0.43157730    -0.64500
Mn30       Mn  0.50296269  0.99694445  0.40366116     1.10700
C31         C  0.34503153  0.50525259  0.38733141     0.98500
C32         C  0.99937527  0.15488320  0.38717489     0.98600
N33         N  0.49616363  0.07894798  0.09493341    -0.06800
N34         N  0.01047042  0.10948273  0.13037544    -0.62100
N35         N  0.39530613  0.02430356  0.05893481    -0.06100
N36         N  0.34704547  0.02558557  0.06857789    -0.58900
N37         N  0.42135135  0.99995956  0.09476478    -0.07400
N38         N  0.39131425  0.48512503  0.12956201    -0.61700
N39         N  0.47103952  0.10426785  0.05909404    -0.06400
N40         N  0.46853890  0.15273926  0.06850702    -0.58900
Mn41       Mn  0.00315412  0.49671775  0.09666603     1.20200
Mn42       Mn  0.43192733  0.06540065  0.99970401     1.10100
Cl43       Cl  0.00331239  0.99682081  0.00023519    -0.86900
C44         C  0.99355287  0.15535409  0.11304004     0.95500
C45         C  0.34506245  0.50064575  0.11232624     0.95300
C46         C  0.01032946  0.29076199  0.14038321     0.02200
C47         C  0.01194174  0.29024583  0.19328635    -0.13900
C48         C  0.00609708  0.24630809  0.22119189    -0.00300
C49         C  0.99965863  0.20246325  0.19335699    -0.12400
C50         C  0.99950391  0.20223992  0.14040020     0.02200
C51         C  0.00450836  0.24658049  0.11406249    -0.11900
H52         H  0.01896557  0.32460965  0.21160317     0.08200
H53         H  0.99317659  0.16802755  0.21182815     0.05400
H54         H  0.00377699  0.24672947  0.07317704     0.05200
C55         C  0.00491964  0.29159830  0.35912243     0.02200
C56         C  0.00359350  0.29154021  0.30622585    -0.13900
C57         C  0.00608157  0.24635718  0.27844121    -0.00300
C58         C  0.00794412  0.20129609  0.30642771    -0.12400
C59         C  0.00469390  0.20153258  0.35929135     0.02200
C60         C  0.00436200  0.24665330  0.38540951    -0.11900
H61         H  0.00129596  0.32735210  0.28778977     0.07800
H62         H  0.01085031  0.16540797  0.28810528     0.05400
H63         H  0.00358192  0.24680668  0.42629790     0.05200
C64         C  0.20844795  0.49530521  0.14081395     0.02200
C65         C  0.20865950  0.49678826  0.19370178    -0.13900
C66         C  0.25392816  0.49442171  0.22142053    -0.00300
C67         C  0.29889446  0.49274319  0.19330165    -0.12400
C68         C  0.29851179  0.49552605  0.14040971     0.02200
C69         C  0.25334975  0.49561116  0.11441954    -0.11900
H70         H  0.17285357  0.49906846  0.21212218     0.07800
H71         H  0.33483186  0.49032771  0.21150408     0.05400
H72         H  0.25312826  0.49610479  0.07352635     0.05200
C73         C  0.20955897  0.49000469  0.35946131     0.02200
C74         C  0.21002677  0.48892909  0.30657819    -0.13900
C75         C  0.25412467  0.49414604  0.27870887    -0.00300
C76         C  0.29820223  0.49948873  0.30665757    -0.12400
C77         C  0.29830655  0.49951470  0.35964723     0.02200
C78         C  0.25383483  0.49498751  0.38585977    -0.11900
H79         H  0.17544280  0.48270142  0.28828517     0.07800
H80         H  0.33289702  0.50523631  0.28830250     0.05400
H81         H  0.25365094  0.49547534  0.42675136     0.05200
N82         N  0.08496012  0.49382736  0.90506152    -0.07000
N83         N  0.11534917  0.00788604  0.86968339    -0.59100
N84         N  0.03544931  0.38954802  0.94095580    -0.06700
N85         N  0.03909761  0.34108646  0.93153562    -0.61300
N86         N  0.01064618  0.41453418  0.90471833    -0.06300
N87         N  0.49775498  0.38339706  0.86919592    -0.59100
N88         N  0.11077210  0.46967234  0.94114163    -0.06000
N89         N  0.15903484  0.46786542  0.93157355    -0.61600
C90         C  0.16149840  0.99207693  0.88705985     0.95200
C91         C  0.51504340  0.33774240  0.88690196     0.94900
N92         N  0.00735057  0.41465353  0.59475086    -0.07200
N93         N  0.49285890  0.38429166  0.63027281    -0.59700
N94         N  0.11101337  0.46484108  0.55870319    -0.05300
N95         N  0.15942071  0.46112126  0.56836328    -0.61000
N96         N  0.08590773  0.48976824  0.59478786    -0.07200
N97         N  0.11630581  0.00329351  0.63011240    -0.60000
N98         N  0.03163587  0.38888314  0.55871659    -0.05000
N99         N  0.03380735  0.34059369  0.56840717    -0.61000
Mn100      Mn  0.07422112  0.42842257  0.00001010     1.18400
C101        C  0.50929409  0.33827767  0.61298416     0.97300
C102        C  0.16204808  0.98597373  0.61270817     0.97900
N103        N  0.42137920  0.99951795  0.90474350    -0.07200
N104        N  0.39118283  0.48407145  0.87003967    -0.63500
N105        N  0.47098890  0.10404116  0.94031241    -0.06000
N106        N  0.46882176  0.15253079  0.93117953    -0.64200
N107        N  0.49586966  0.07873405  0.90432013    -0.06700
N108        N  0.00982039  0.10981917  0.87003601    -0.63800
N109        N  0.39537924  0.02392455  0.94058330    -0.05600
N110        N  0.34710112  0.02489238  0.93116712    -0.64500
Mn111      Mn  0.50333979  0.99648303  0.90300358     1.10700
C112        C  0.34494630  0.49952503  0.88739547     0.98500
C113        C  0.99267598  0.15565695  0.88727129     0.98600
N114        N  0.49957708  0.07860060  0.59523510    -0.06800
N115        N  0.01453544  0.10878735  0.62987462    -0.62100
N116        N  0.39559936  0.02844143  0.55949333    -0.06100
N117        N  0.34716263  0.03115062  0.56887581    -0.58900
N118        N  0.42092449  0.00362582  0.59552593    -0.07400
N119        N  0.39052139  0.48894049  0.63029473    -0.61700
N120        N  0.47488245  0.10455922  0.55955300    -0.06400
N121        N  0.47368331  0.15284512  0.56902230    -0.58900
Mn122      Mn  0.00357984  0.49668350  0.59631077     1.20200
Mn123      Mn  0.43388810  0.06783489  0.50033486     1.10100
Cl124      Cl  0.00303117  0.99683742  0.49977146    -0.86900
C125        C  0.99863675  0.15498844  0.61275287     0.95500
C126        C  0.34462589  0.50595448  0.61312804     0.95300
C127        C  0.00528041  0.29157192  0.64083243     0.02200
C128        C  0.00389485  0.29154665  0.69374717    -0.13900
C129        C  0.00553473  0.24640941  0.72158787    -0.00300
C130        C  0.00667848  0.20138388  0.69361895    -0.12400
C131        C  0.00383525  0.20161752  0.64072184     0.02200
C132        C  0.00419681  0.24666692  0.61458061    -0.11900
H133        H  0.00213011  0.32735933  0.71214954     0.08200
H134        H  0.00886912  0.16552267  0.71197566     0.05400
H135        H  0.00358896  0.24678958  0.57368999     0.05200
C136        C  0.01053650  0.29082447  0.85960277     0.02200
C137        C  0.01217474  0.29016826  0.80670827    -0.13900
C138        C  0.00555711  0.24637823  0.77886933    -0.00300
C139        C  0.99847331  0.20272846  0.80680533    -0.12400
C140        C  0.99853859  0.20253951  0.85979144     0.02200
C141        C  0.00418377  0.24680970  0.88603219    -0.11900
H142        H  0.01971452  0.32434933  0.78833538     0.07800
H143        H  0.99150573  0.16839448  0.78838838     0.05400
H144        H  0.00356980  0.24702784  0.92691901     0.05200
C145        C  0.20931865  0.48950832  0.64054581     0.02200
C146        C  0.20966559  0.48836358  0.69345767    -0.13900
C147        C  0.25355535  0.49435399  0.72135891    -0.00300
C148        C  0.29749455  0.50054637  0.69357238    -0.12400
C149        C  0.29782727  0.50016561  0.64061243     0.02200
C150        C  0.25357768  0.49492280  0.61426687    -0.11900
H151        H  0.17526648  0.48152521  0.71183791     0.07800
H152        H  0.33185342  0.50727152  0.71209906     0.05400
H153        H  0.25354141  0.49526149  0.57337288     0.05200
C154        C  0.20804031  0.49607586  0.85918094     0.02200
C155        C  0.20811799  0.49801707  0.80628795    -0.13900
C156        C  0.25339272  0.49452187  0.77856862    -0.00300
C157        C  0.29849249  0.49148787  0.80655940    -0.12400
C158        C  0.29827897  0.49455403  0.85942296     0.02200
C159        C  0.25308284  0.49554628  0.88548071    -0.11900
H160        H  0.17231442  0.50139973  0.78775601     0.07800
H161        H  0.33437990  0.48783541  0.78819837     0.05400
H162        H  0.25295512  0.49603296  0.92637512     0.05200
N163        N  0.08549012  0.98959386  0.40451809    -0.07000
N164        N  0.11677719  0.50297855  0.36934895    -0.59100
N165        N  0.03118095  0.88896012  0.44083188    -0.06700
N166        N  0.03366652  0.84068400  0.43106115    -0.61300
N167        N  0.00687320  0.91465637  0.40473867    -0.06300
N168        N  0.49268850  0.88463768  0.36971765    -0.59100
N169        N  0.11052901  0.96493877  0.44082099    -0.06000
N170        N  0.15898146  0.96151089  0.43149053    -0.61600
C171        C  0.16246924  0.48553773  0.38684575     0.95200
C172        C  0.50884813  0.83854796  0.38704904     0.94900
N173        N  0.01074794  0.91427117  0.09505127    -0.07200
N174        N  0.49685912  0.88359349  0.12974307    -0.59700
N175        N  0.11122029  0.96926380  0.05913095    -0.05300
N176        N  0.15948714  0.96744304  0.06871593    -0.61000
N177        N  0.08535392  0.99331572  0.09525494    -0.07200
N178        N  0.11545683  0.50743103  0.13050138    -0.60000
N179        N  0.03589784  0.88932973  0.05901426    -0.05000
N180        N  0.03907465  0.84083934  0.06815555    -0.61000
Mn181      Mn  0.07196575  0.92586810  0.49983515     1.18400
C182        C  0.51443652  0.83788029  0.11251297     0.97300
C183        C  0.16152991  0.49145489  0.11296973     0.97900
N184        N  0.42142163  0.50322417  0.40506441    -0.07200
N185        N  0.39029916  0.98929043  0.37014010    -0.63500
N186        N  0.47496569  0.60479233  0.44107950    -0.06000
N187        N  0.47355258  0.65309078  0.43147637    -0.64200
N188        N  0.49954092  0.57887556  0.40530470    -0.06700
N189        N  0.01492824  0.60875809  0.36964444    -0.63800
N190        N  0.39588722  0.52806598  0.44093945    -0.05600
N191        N  0.34746616  0.53008136  0.43153935    -0.64500
Mn192      Mn  0.50359317  0.49690737  0.40369419     1.10700
C193        C  0.34439291  0.00618772  0.38733018     0.98500
C194        C  0.99914512  0.65497411  0.38678527     0.98600
N195        N  0.49626303  0.57918532  0.09455301    -0.06800
N196        N  0.01082489  0.60953620  0.12971603    -0.62100
N197        N  0.39518172  0.52470430  0.05873031    -0.06100
N198        N  0.34691016  0.52571425  0.06822100    -0.58900
N199        N  0.42126313  0.50039651  0.09456311    -0.07400
N200        N  0.39139261  0.98493542  0.12991084    -0.61700
N201        N  0.47092356  0.60453947  0.05887644    -0.06400
N202        N  0.46846590  0.65299389  0.06831288    -0.58900
Mn203      Mn  0.00335491  0.99652788  0.09685058     1.20200
Mn204      Mn  0.43173641  0.56579463  0.99957234     1.10100
Cl205      Cl  0.00287184  0.49698099  0.00006348    -0.86900
C206        C  0.99391239  0.65540008  0.11242990     0.95500
C207        C  0.34515069  0.00065237  0.11276105     0.95300
C208        C  0.00998666  0.79071279  0.13979111     0.02200
C209        C  0.01146841  0.79027474  0.19268755    -0.13900
C210        C  0.00615292  0.74624358  0.22062253    -0.00300
C211        C  0.00028696  0.70228491  0.19275437    -0.12400
C212        C  0.99990716  0.70216425  0.13980390     0.02200
C213        C  0.00450392  0.74652627  0.11346235    -0.11900
H214        H  0.01802423  0.82478463  0.21091699     0.08200
H215        H  0.99438313  0.66767501  0.21112963     0.05400
H216        H  0.00373082  0.74668592  0.07257369     0.05200
C217        C  0.00564972  0.79154078  0.35858488     0.02200
C218        C  0.00427802  0.79148483  0.30569094    -0.13900
C219        C  0.00614636  0.74631666  0.27789665    -0.00300
C220        C  0.00742203  0.70130351  0.30592926    -0.12400
C221        C  0.00450804  0.70157807  0.35881263     0.02200
C222        C  0.00479076  0.74664641  0.38489305    -0.11900
H223        H  0.00242134  0.82729366  0.28733902     0.07800
H224        H  0.00962966  0.66541309  0.28770814     0.05400
H225        H  0.00416944  0.74680424  0.42578191     0.05200
C226        C  0.20842293  0.99580464  0.14108113     0.02200
C227        C  0.20853244  0.99703571  0.19395320    -0.13900
C228        C  0.25377139  0.99420649  0.22167374    -0.00300
C229        C  0.29883436  0.99226735  0.19367645    -0.12400
C230        C  0.29853070  0.99566454  0.14081843     0.02200
C231        C  0.25334628  0.99630386  0.11477441    -0.11900
H232        H  0.17272674  0.99948429  0.21239779     0.07800
H233        H  0.33473501  0.98912868  0.21198557     0.05400
H234        H  0.25313562  0.99715161  0.07388923     0.05200
C235        C  0.20917354  0.98966164  0.35950956     0.02200
C236        C  0.20985510  0.98788426  0.30664749    -0.13900
C237        C  0.25382213  0.99389357  0.27887770    -0.00300
C238        C  0.29761329  0.00029198  0.30680142    -0.12400
C239        C  0.29766877  0.00035822  0.35975813     0.02200
C240        C  0.25326762  0.99542468  0.38595449    -0.11900
H241        H  0.17559020  0.98066856  0.28826587     0.07800
H242        H  0.33207945  0.00680616  0.28840588     0.05400
H243        H  0.25300455  0.99616510  0.42684143     0.05200
N244        N  0.08526711  0.99362110  0.90511291    -0.07000
N245        N  0.11511781  0.50814180  0.86972273    -0.59100
N246        N  0.03587482  0.88950089  0.94104816    -0.06700
N247        N  0.03884394  0.84102701  0.93184657    -0.61300
N248        N  0.01066010  0.91456248  0.90513797    -0.06300
N249        N  0.49781655  0.88328640  0.86934508    -0.59100
N250        N  0.11118415  0.96954757  0.94118857    -0.06000
N251        N  0.15943108  0.96776184  0.93152194    -0.61600
C252        C  0.16122590  0.49224421  0.88715635     0.95200
C253        C  0.51542302  0.83766059  0.88681386     0.94900
N254        N  0.00694219  0.91474278  0.59496347    -0.07200
N255        N  0.49280170  0.88431492  0.63048721    -0.59700
N256        N  0.11064811  0.96508641  0.55879224    -0.05300
N257        N  0.15910417  0.96189057  0.56818967    -0.61000
N258        N  0.08552445  0.98992005  0.59491534    -0.07200
N259        N  0.11666664  0.50270970  0.63020295    -0.60000
N260        N  0.03116393  0.88895644  0.55889252    -0.05000
N261        N  0.03333011  0.84067257  0.56862382    -0.61000
Mn262      Mn  0.07472029  0.92828383  0.00009278     1.18400
C263        C  0.50899029  0.83826517  0.61309389     0.97300
C264        C  0.16236081  0.48500605  0.61297812     0.97900
N265        N  0.42121239  0.49985929  0.90471164    -0.07200
N266        N  0.39135102  0.98418846  0.86980999    -0.63500
N267        N  0.47081046  0.60436744  0.94031221    -0.06000
N268        N  0.46840947  0.65284460  0.93111115    -0.64200
N269        N  0.49579166  0.57907101  0.90437504    -0.06700
N270        N  0.01064427  0.60983501  0.87053345    -0.63800
N271        N  0.39519285  0.52440312  0.94044877    -0.05600
N272        N  0.34690621  0.52505466  0.93121560    -0.64500
Mn273      Mn  0.50319637  0.49675369  0.90296243     1.10700
C274        C  0.34512365  0.99975032  0.88711567     0.98500
C275        C  0.99372435  0.65568035  0.88785022     0.98600
N276        N  0.49963289  0.57850921  0.59539389    -0.06800
N277        N  0.01489113  0.60872934  0.63000347    -0.62100
N278        N  0.39568343  0.52833216  0.55954624    -0.06100
N279        N  0.34724052  0.53079356  0.56896414    -0.58900
N280        N  0.42107858  0.50330291  0.59539474    -0.07400
N281        N  0.39028899  0.98973009  0.63058651    -0.61700
N282        N  0.47502353  0.60453814  0.55969597    -0.06400
N283        N  0.47411347  0.65281688  0.56913445    -0.58900
Mn284      Mn  0.00320255  0.99679197  0.59638963     1.20200
Mn285      Mn  0.43410097  0.56773904  0.50030625     1.10100
Cl286      Cl  0.00343873  0.49686157  0.49971102    -0.86900
C287        C  0.99893583  0.65496613  0.61298671     0.95500
C288        C  0.34444248  0.00675006  0.61324130     0.95300
C289        C  0.00513469  0.79163170  0.64121113     0.02200
C290        C  0.00376767  0.79162385  0.69413787    -0.13900
C291        C  0.00533549  0.74650490  0.72204913    -0.00300
C292        C  0.00642925  0.70144971  0.69402742    -0.12400
C293        C  0.00397825  0.70162213  0.64109065     0.02200
C294        C  0.00436674  0.74667688  0.61497940    -0.11900
H295        H  0.00218552  0.82745778  0.71242904     0.08200
H296        H  0.00820917  0.66558050  0.71227268     0.05400
H297        H  0.00394021  0.74677121  0.57408817     0.05200
C298        C  0.00928591  0.79107889  0.86027214     0.02200
C299        C  0.01039780  0.79066057  0.80733688    -0.13900
C300        C  0.00536551  0.74652740  0.77941161    -0.00300
C301        C  0.99994136  0.70251728  0.80739883    -0.12400
C302        C  0.99954801  0.70246018  0.86037668     0.02200
C303        C  0.00405057  0.74687002  0.88665323    -0.11900
H304        H  0.01651111  0.82527950  0.78906719     0.07800
H305        H  0.99441616  0.66777189  0.78908800     0.05400
H306        H  0.00344019  0.74703920  0.92754721     0.05200
C307        C  0.20901587  0.99052169  0.64030605     0.02200
C308        C  0.20949267  0.98862074  0.69321129    -0.13900
C309        C  0.25343440  0.99436269  0.72116156    -0.00300
C310        C  0.29729572  0.00087304  0.69345348    -0.12400
C311        C  0.29754979  0.00111461  0.64054116     0.02200
C312        C  0.25322095  0.99639985  0.61410532    -0.11900
H313        H  0.17516531  0.98144450  0.71151582     0.07800
H314        H  0.33169540  0.00734165  0.71200382     0.05400
H315        H  0.25312326  0.99727660  0.57322042     0.05200
C316        C  0.20822360  0.99597900  0.85900430     0.02200
C317        C  0.20821641  0.99745135  0.80611696    -0.13900
C318        C  0.25342641  0.99423505  0.77835253    -0.00300
C319        C  0.29858153  0.99151741  0.80628721    -0.12400
C320        C  0.29842239  0.99487247  0.85913526     0.02200
C321        C  0.25324937  0.99596181  0.88523398    -0.11900
H322        H  0.17239589  0.00034549  0.78765381     0.07800
H323        H  0.33445897  0.98786746  0.78793298     0.05400
H324        H  0.25312872  0.99675362  0.92612059     0.05200
N325        N  0.58576745  0.49050760  0.40528936    -0.07000
N326        N  0.61592762  0.00383413  0.36997687    -0.59100
N327        N  0.53187140  0.38911121  0.44116589    -0.06700
N328        N  0.53384707  0.34080261  0.43162852    -0.61300
N329        N  0.50776106  0.41486902  0.40502250    -0.06300
N330        N  0.99303156  0.38449235  0.36941082    -0.59100
N331        N  0.61092918  0.46559205  0.44133190    -0.06000
N332        N  0.65935383  0.46243447  0.43188311    -0.61600
C333        C  0.66169054  0.98653623  0.38734548     0.95200
C334        C  0.00886179  0.33842897  0.38701626     0.94900
N335        N  0.51039047  0.41452473  0.09489848    -0.07200
N336        N  0.99730580  0.38350256  0.13039365    -0.59700
N337        N  0.61104888  0.46916327  0.05862015    -0.05300
N338        N  0.65930652  0.46676787  0.06845004    -0.61000
N339        N  0.58526786  0.49342062  0.09466488    -0.07200
N340        N  0.61539303  0.00733981  0.13023536    -0.60000
N341        N  0.53533973  0.38944736  0.05881281    -0.05000
N342        N  0.53879453  0.34099929  0.06830863    -0.61000
Mn343      Mn  0.57243927  0.42607951  0.50018790     1.18400
C344        C  0.01488439  0.33784010  0.11295520     0.97300
C345        C  0.66153685  0.99146036  0.11289437     0.97900
N346        N  0.92071883  0.00370550  0.40468551    -0.07200
N347        N  0.89052318  0.48949420  0.36967039    -0.63500
N348        N  0.97513787  0.10464261  0.44058732    -0.06000
N349        N  0.97422535  0.15293321  0.43122838    -0.64200
N350        N  0.99948028  0.07864255  0.40471656    -0.06700
N351        N  0.51382899  0.10907563  0.37018260    -0.63800
N352        N  0.89549026  0.02870963  0.44065971    -0.05600
N353        N  0.84701515  0.03139672  0.43138650    -0.64500
Mn354      Mn  0.00309267  0.99667575  0.40312427     1.10700
C355        C  0.84467858  0.50640873  0.38707855     0.98500
C356        C  0.49797657  0.15524024  0.38743606     0.98600
N357        N  0.99597782  0.07882695  0.09563428    -0.06800
N358        N  0.51052259  0.10955096  0.12980489    -0.62100
N359        N  0.89534719  0.02393994  0.05945049    -0.06100
N360        N  0.84707918  0.02497481  0.06894866    -0.58900
N361        N  0.92138127  0.99963534  0.09532298    -0.07400
N362        N  0.89128148  0.48458070  0.13008660    -0.61700
N363        N  0.97092409  0.10411389  0.05973151    -0.06400
N364        N  0.96863180  0.15260094  0.06892598    -0.58900
Mn365      Mn  0.50325249  0.49691648  0.09615962     1.20200
Mn366      Mn  0.93186904  0.06539139  0.00031214     1.10100
Cl367      Cl  0.50329390  0.99667966  0.99964676    -0.86900
C368        C  0.49344755  0.15544584  0.11265836     0.95500
C369        C  0.84500734  0.50015906  0.11294246     0.95300
C370        C  0.51003749  0.29088257  0.14028616     0.02200
C371        C  0.51124263  0.29039979  0.19321174    -0.13900
C372        C  0.50540127  0.24643534  0.22113774    -0.00300
C373        C  0.49932057  0.20251398  0.19318536    -0.12400
C374        C  0.49931329  0.20231483  0.14019292     0.02200
C375        C  0.50443310  0.24667077  0.11392969    -0.11900
H376        H  0.51786843  0.32487170  0.21147080     0.08200
H377        H  0.49310373  0.16796312  0.21151312     0.05400
H378        H  0.50393357  0.24681179  0.07304232     0.05200
C379        C  0.50522732  0.29174699  0.35925019     0.02200
C380        C  0.50402359  0.29166292  0.30632434    -0.13900
C381        C  0.50516425  0.24654704  0.27848599    -0.00300
C382        C  0.50569463  0.20161253  0.30654848    -0.12400
C383        C  0.50308917  0.20189226  0.35946342     0.02200
C384        C  0.50382133  0.24691758  0.38556811    -0.11900
H385        H  0.50287890  0.32742841  0.28797588     0.07800
H386        H  0.50726667  0.16575519  0.28832401     0.05400
H387        H  0.50328494  0.24707553  0.42646010     0.05200
C388        C  0.70834432  0.49472703  0.14101741     0.02200
C389        C  0.70832397  0.49663715  0.19390598    -0.13900
C390        C  0.75350654  0.49431430  0.22173077    -0.00300
C391        C  0.79861226  0.49215869  0.19378245    -0.12400
C392        C  0.79842661  0.49482654  0.14090921     0.02200
C393        C  0.75335931  0.49481908  0.11478399    -0.11900
H394        H  0.67248234  0.49925154  0.21228182     0.07800
H395        H  0.83449432  0.48952131  0.21207823     0.05400
H396        H  0.75329321  0.49516381  0.07389132     0.05200
C397        C  0.70913071  0.49109806  0.35982245     0.02200
C398        C  0.70953583  0.48934694  0.30693048    -0.13900
C399        C  0.75354370  0.49469669  0.27896578    -0.00300
C400        C  0.79751183  0.50079892  0.30674219    -0.12400
C401        C  0.79777428  0.50095642  0.35967830     0.02200
C402        C  0.75339448  0.49652384  0.38606065    -0.11900
H403        H  0.67507313  0.48254690  0.28870087     0.07800
H404        H  0.83203645  0.50691473  0.28828561     0.05400
H405        H  0.75329830  0.49728462  0.42694896     0.05200
N406        N  0.58517645  0.49362286  0.90459484    -0.07000
N407        N  0.61546958  0.00812174  0.86939757    -0.59100
N408        N  0.53538866  0.38941730  0.94075738    -0.06700
N409        N  0.53878272  0.34092580  0.93156154    -0.61300
N410        N  0.51075605  0.41436570  0.90439334    -0.06300
N411        N  0.99775059  0.38362272  0.86940805    -0.59100
N412        N  0.61096884  0.46937099  0.94065054    -0.06000
N413        N  0.65925752  0.46769790  0.93118472    -0.61600
C414        C  0.66162566  0.99250309  0.88691934     0.95200
C415        C  0.01531572  0.33795599  0.88688482     0.94900
N416        N  0.50716532  0.41459106  0.59507780    -0.07200
N417        N  0.99326862  0.38443878  0.63014573    -0.59700
N418        N  0.61084752  0.46513699  0.55911622    -0.05300
N419        N  0.65927322  0.46135934  0.56854481    -0.61000
N420        N  0.58582246  0.48953734  0.59557627    -0.07200
N421        N  0.61651901  0.00272726  0.63053506    -0.60000
N422        N  0.53176438  0.38894155  0.55914986    -0.05000
N423        N  0.53396758  0.34063675  0.56874402    -0.61000
Mn424      Mn  0.57428628  0.42826463  0.99969147     1.18400
C425        C  0.00948269  0.33835733  0.61286037     0.97300
C426        C  0.66219763  0.98526017  0.61305289     0.97900
N427        N  0.92148082  0.99985604  0.90513959    -0.07200
N428        N  0.89140621  0.48465512  0.87000675    -0.63500
N429        N  0.97088636  0.10437073  0.94101571    -0.06000
N430        N  0.96813261  0.15285766  0.93161403    -0.64200
N431        N  0.99587727  0.07914151  0.90503273    -0.06700
N432        N  0.51038715  0.10937080  0.86959108    -0.63800
N433        N  0.89538204  0.02409782  0.94099556    -0.05600
N434        N  0.84713959  0.02509173  0.93138440    -0.64500
Mn435      Mn  0.00332197  0.99682028  0.90362185     1.10700
C436        C  0.84512411  0.50000715  0.88723558     0.98500
C437        C  0.49366651  0.15524975  0.88702086     0.98600
N438        N  0.99952444  0.07876850  0.59478821    -0.06800
N439        N  0.51494801  0.10864924  0.63009626    -0.62100
N440        N  0.89555890  0.02868786  0.55908075    -0.06100
N441        N  0.84711778  0.03131933  0.56854342    -0.58900
N442        N  0.92091861  0.00366312  0.59495480    -0.07400
N443        N  0.89077031  0.48882868  0.62981553    -0.61700
N444        N  0.97503937  0.10474523  0.55899365    -0.06400
N445        N  0.97361946  0.15302381  0.56862360    -0.58900
Mn446      Mn  0.50339315  0.49653909  0.59689668     1.20200
Mn447      Mn  0.93406848  0.06795725  0.49981511     1.10100
Cl448      Cl  0.50297109  0.99684039  0.50026540    -0.86900
C449        C  0.49905999  0.15483781  0.61292383     0.95500
C450        C  0.84481159  0.50561730  0.61263662     0.95300
C451        C  0.50519856  0.29147010  0.64089486     0.02200
C452        C  0.50379859  0.29142996  0.69379548    -0.13900
C453        C  0.50592599  0.24625555  0.72160099    -0.00300
C454        C  0.50740415  0.20123077  0.69362620    -0.12400
C455        C  0.50437391  0.20147559  0.64077317     0.02200
C456        C  0.50442057  0.24654603  0.61462689    -0.11900
H457        H  0.50176281  0.32725231  0.71218716     0.08200
H458        H  0.50991386  0.16533894  0.71191330     0.05400
H459        H  0.50376286  0.24667466  0.57373785     0.05200
C460        C  0.51051495  0.29060799  0.85959964     0.02200
C461        C  0.51197934  0.29007861  0.80671370    -0.13900
C462        C  0.50608989  0.24615463  0.77884390    -0.00300
C463        C  0.49980545  0.20229308  0.80671618    -0.12400
C464        C  0.49970018  0.20210037  0.85966831     0.02200
C465        C  0.50477198  0.24643901  0.88597686    -0.11900
H466        H  0.51889246  0.32446031  0.78838415     0.07800
H467        H  0.49337440  0.16781671  0.78830616     0.05400
H468        H  0.50410461  0.24660607  0.92686317     0.05200
C469        C  0.70954895  0.48883493  0.64069197     0.02200
C470        C  0.71020955  0.48731891  0.69353697    -0.13900
C471        C  0.75406348  0.49380328  0.72121845    -0.00300
C472        C  0.79786652  0.50026623  0.69328603    -0.12400
C473        C  0.79805040  0.49978316  0.64030047     0.02200
C474        C  0.75366717  0.49446685  0.61417405    -0.11900
H475        H  0.67603435  0.47997615  0.71205578     0.07800
H476        H  0.83219094  0.50724312  0.71173118     0.05400
H477        H  0.75341340  0.49493146  0.57328440     0.05200
C478        C  0.70837276  0.49614557  0.85893426     0.02200
C479        C  0.70853566  0.49803379  0.80604786    -0.13900
C480        C  0.75386414  0.49430627  0.77838147    -0.00300
C481        C  0.79892345  0.49146287  0.80636726    -0.12400
C482        C  0.79859407  0.49477137  0.85921118     0.02200
C483        C  0.75339212  0.49563766  0.88524511    -0.11900
H484        H  0.67275486  0.50155113  0.78748169     0.07800
H485        H  0.83481128  0.48780458  0.78800401     0.05400
H486        H  0.75323027  0.49613964  0.92613654     0.05200
N487        N  0.58520538  0.99028496  0.40513660    -0.07000
N488        N  0.61647382  0.50397110  0.37008117    -0.59100
N489        N  0.53113859  0.88909129  0.44111112    -0.06700
N490        N  0.53319881  0.84080133  0.43148153    -0.61300
N491        N  0.50686802  0.91486812  0.40506449    -0.06300
N492        N  0.99313965  0.88439032  0.36921484    -0.59100
N493        N  0.61038589  0.96536707  0.44117350    -0.06000
N494        N  0.65881730  0.96230113  0.43177124    -0.61600
C495        C  0.66222000  0.48662388  0.38743012     0.95200
C496        C  0.00954648  0.83836483  0.38651700     0.94900
N497        N  0.51052307  0.91436463  0.09469672    -0.07200
N498        N  0.99704516  0.88333380  0.12990384    -0.59700
N499        N  0.61119830  0.96919029  0.05864677    -0.05300
N500        N  0.65945284  0.96725896  0.06836674    -0.61000
N501        N  0.58529378  0.99322247  0.09475170    -0.07200
N502        N  0.61546567  0.50728621  0.13019837    -0.60000
N503        N  0.53574139  0.88927222  0.05879101    -0.05000
N504        N  0.53896843  0.84082390  0.06823505    -0.61000
Mn505      Mn  0.57197900  0.92590677  0.50010133     1.18400
C506        C  0.01455695  0.83770634  0.11239085     0.97300
C507        C  0.66154221  0.49094261  0.11297294     0.97900
N508        N  0.92119318  0.50363693  0.40458155    -0.07200
N509        N  0.88998818  0.98967150  0.36977890    -0.63500
N510        N  0.97524207  0.60475020  0.44044635    -0.06000
N511        N  0.97400295  0.65303727  0.43085864    -0.64200
N512        N  0.99974872  0.57875833  0.40465769    -0.06700
N513        N  0.51462709  0.60892612  0.37028715    -0.63800
N514        N  0.89590228  0.52848581  0.44061460    -0.05600
N515        N  0.84743998  0.53096507  0.43136795    -0.64500
Mn516      Mn  0.00351162  0.49677143  0.40306966     1.10700
C517        C  0.84417689  0.00678992  0.38713399     0.98500
C518        C  0.49865461  0.65511008  0.38738120     0.98600
N519        N  0.99594495  0.57893465  0.09516092    -0.06800
N520        N  0.51084849  0.60974012  0.12932468    -0.62100
N521        N  0.89505990  0.52444892  0.05937100    -0.06100
N522        N  0.84680993  0.52543216  0.06895099    -0.58900
N523        N  0.92118271  0.50000916  0.09510970    -0.07400
N524        N  0.89138733  0.98441107  0.13035312    -0.61700
N525        N  0.97070661  0.60426722  0.05941148    -0.06400
N526        N  0.96862372  0.65273969  0.06853500    -0.58900
Mn527      Mn  0.50331394  0.99663187  0.09625261     1.20200
Mn528      Mn  0.93153855  0.56570752  0.00011430     1.10100
Cl529      Cl  0.50305645  0.49699883  0.99958300    -0.86900
C530        C  0.49364709  0.65561808  0.11230809     0.95500
C531        C  0.84513570  0.99995336  0.11307364     0.95300
C532        C  0.50957795  0.79093921  0.14002396     0.02200
C533        C  0.51065089  0.79052651  0.19296501    -0.13900
C534        C  0.50549092  0.74641742  0.22090826    -0.00300
C535        C  0.49991183  0.70240834  0.19292401    -0.12400
C536        C  0.49949298  0.70235878  0.13992059     0.02200
C537        C  0.50417156  0.74675259  0.11366731    -0.11900
H538        H  0.51684072  0.82512902  0.21122125     0.08200
H539        H  0.49429716  0.66769134  0.21125963     0.05400
H540        H  0.50357093  0.74692534  0.07277512     0.05200
C541        C  0.50481514  0.79172557  0.35906991     0.02200
C542        C  0.50372116  0.79162895  0.30613991    -0.13900
C543        C  0.50541023  0.74647141  0.27828420    -0.00300
C544        C  0.50650954  0.70146888  0.30636766    -0.12400
C545        C  0.50371313  0.70174342  0.35929950     0.02200
C546        C  0.50385665  0.74683869  0.38536918    -0.11900
H547        H  0.50223717  0.82743130  0.28780535     0.07800
H548        H  0.50852132  0.66558132  0.28813213     0.05400
H549        H  0.50318184  0.74701176  0.42625960     0.05200
C550        C  0.70825670  0.99544415  0.14098229     0.02200
C551        C  0.70814900  0.99714751  0.19386804    -0.13900
C552        C  0.75328078  0.99445918  0.22176211    -0.00300
C553        C  0.79847454  0.99196782  0.19389312    -0.12400
C554        C  0.79841382  0.99497993  0.14101887     0.02200
C555        C  0.75331269  0.99559119  0.11482818    -0.11900
H556        H  0.67227151  0.99983177  0.21222019     0.07800
H557        H  0.83433468  0.98877549  0.21229832     0.05400
H558        H  0.75326944  0.99619747  0.07393782     0.05200
C559        C  0.70863999  0.99113788  0.35979925     0.02200
C560        C  0.70912639  0.98940563  0.30689542    -0.13900
C561        C  0.75317244  0.99481064  0.27899563    -0.00300
C562        C  0.79705179  0.00107151  0.30682068    -0.12400
C563        C  0.79725469  0.00129408  0.35975320     0.02200
C564        C  0.75286825  0.99668618  0.38609639    -0.11900
H565        H  0.67470171  0.98254798  0.28857780     0.07800
H566        H  0.83156151  0.00730620  0.28834978     0.05400
H567        H  0.75274049  0.99741342  0.42698567     0.05200
N568        N  0.58531981  0.99345451  0.90457613    -0.07000
N569        N  0.61539715  0.50814902  0.86940341    -0.59100
N570        N  0.53593277  0.88923015  0.94066224    -0.06700
N571        N  0.53946020  0.84076727  0.93131925    -0.61300
N572        N  0.51096721  0.91418856  0.90451297    -0.06300
N573        N  0.99667010  0.88372949  0.87032140    -0.59100
N574        N  0.61120412  0.96936014  0.94066765    -0.06000
N575        N  0.65948216  0.96793803  0.93124202    -0.61600
C576        C  0.66150771  0.49226697  0.88687213     0.95200
C577        C  0.01410889  0.83803026  0.88770640     0.94900
N578        N  0.50697522  0.91459232  0.59519268    -0.07200
N579        N  0.99293924  0.88454300  0.63042758    -0.59700
N580        N  0.61068036  0.96484023  0.55908580    -0.05300
N581        N  0.65913604  0.96136353  0.56846720    -0.61000
N582        N  0.58564273  0.98963171  0.59529258    -0.07200
N583        N  0.61672713  0.50197247  0.63111173    -0.60000
N584        N  0.53130505  0.88888238  0.55913061    -0.05000
N585        N  0.53342313  0.84058260  0.56871592    -0.61000
Mn586      Mn  0.57468379  0.92812341  0.99968170     1.18400
C587        C  0.00912640  0.83844208  0.61315124     0.97300
C588        C  0.66238449  0.48456677  0.61345631     0.97900
N589        N  0.92125337  0.50016041  0.90498092    -0.07200
N590        N  0.89159679  0.98462935  0.87002321    -0.63500
N591        N  0.97066481  0.60446528  0.94090041    -0.06000
N592        N  0.96850876  0.65295725  0.93179470    -0.64200
N593        N  0.99585327  0.57918583  0.90509056    -0.06700
N594        N  0.51015067  0.60972875  0.86959149    -0.63800
N595        N  0.89510589  0.52448089  0.94076975    -0.05600
N596        N  0.84686775  0.52525559  0.93125285    -0.64500
Mn597      Mn  0.00311996  0.49694409  0.90345291     1.10700
C598        C  0.84531604  0.00009871  0.88721395     0.98500
C599        C  0.49319499  0.65556840  0.88694326     0.98600
N600        N  0.99985624  0.57873530  0.59487955    -0.06800
N601        N  0.51523535  0.60848091  0.63020402    -0.62100
N602        N  0.89582439  0.52835236  0.55911337    -0.06100
N603        N  0.84736358  0.53050204  0.56846504    -0.58900
N604        N  0.92127625  0.50338142  0.59495865    -0.07400
N605        N  0.89035079  0.98954250  0.62995778    -0.61700
N606        N  0.97530620  0.60474536  0.55913710    -0.06400
N607        N  0.97388596  0.65302063  0.56885647    -0.58900
Mn608      Mn  0.50326078  0.99663190  0.59685686     1.20200
Mn609      Mn  0.93432471  0.56787085  0.49982731     1.10100
Cl610      Cl  0.50333904  0.49686947  0.50030383    -0.86900
C611        C  0.49959054  0.65471468  0.61301128     0.95500
C612        C  0.84447607  0.00666017  0.61280604     0.95300
C613        C  0.50500085  0.79143851  0.64100876     0.02200
C614        C  0.50325743  0.79141792  0.69388230    -0.13900
C615        C  0.50604822  0.74622408  0.72164893    -0.00300
C616        C  0.50831450  0.70111529  0.69373769    -0.12400
C617        C  0.50506235  0.70132688  0.64088595     0.02200
C618        C  0.50472785  0.74644299  0.61475289    -0.11900
H619        H  0.50043564  0.82724646  0.71235470     0.08200
H620        H  0.51147862  0.66523981  0.71214039     0.05400
H621        H  0.50409088  0.74655765  0.57386549     0.05200
C622        C  0.51069689  0.79063927  0.85950647     0.02200
C623        C  0.51242057  0.79004407  0.80663338    -0.13900
C624        C  0.50600638  0.74622542  0.77881979    -0.00300
C625        C  0.49904882  0.70255066  0.80665205    -0.12400
C626        C  0.49908929  0.70236989  0.85958673     0.02200
C627        C  0.50447103  0.74662024  0.88589381    -0.11900
H628        H  0.51997488  0.82422354  0.78823169     0.07800
H629        H  0.49208886  0.66823884  0.78816391     0.05400
H630        H  0.50377136  0.74681466  0.92678163     0.05200
C631        C  0.70925553  0.98981136  0.64043981     0.02200
C632        C  0.70993827  0.98778808  0.69331785    -0.13900
C633        C  0.75384627  0.99394760  0.72112547    -0.00300
C634        C  0.79758289  0.00070996  0.69327984    -0.12400
C635        C  0.79768539  0.00091294  0.64031913     0.02200
C636        C  0.75330265  0.99597053  0.61405850    -0.11900
H637        H  0.67577142  0.98024361  0.71175114     0.07800
H638        H  0.83195986  0.00738843  0.71181014     0.05400
H639        H  0.75304095  0.99688709  0.57317416     0.05200
C640        C  0.70843191  0.99643135  0.85892425     0.02200
C641        C  0.70854199  0.99776257  0.80603081    -0.13900
C642        C  0.75381193  0.99409041  0.77832110    -0.00300
C643        C  0.79893818  0.99129149  0.80629628    -0.12400
C644        C  0.79868437  0.99506603  0.85914387     0.02200
C645        C  0.75344381  0.99637863  0.88519071    -0.11900
H646        H  0.67274425  0.00088970  0.78748697     0.07800
H647        H  0.83482220  0.98734407  0.78790518     0.05400
H648        H  0.75325229  0.99732926  0.92607435     0.05200
loop_ 
_geom_bond_atom_site_label_1 
_geom_bond_atom_site_label_2 
_geom_bond_distance 
_geom_bond_site_symmetry_2 
_ccdc_geom_bond_type 
N1            N7   1.316       .  A
N1          N164   1.321       .  A
N1         Mn516   2.206       .  S
N2          N163   1.321   1_545  A
N2            C9   1.354   1_545  A
N3            N5   1.316       .  A
N3            N4   1.319       .  A
N3          Mn19   2.200       .  S
N4          C334   1.352       .  A
N5          N330   1.321   1_455  A
N5         Mn516   2.198       .  S
N6          N329   1.321       .  A
N6           C10   1.353       .  A
N7            N8   1.321       .  A
N7          Mn19   2.201       .  S
N8          C171   1.352       .  A
C9          N170   1.351       .  A
C9          C235   1.474       .  S
C10         N328   1.352       .  A
C10         C379   1.474       .  S
N11          N17   1.316       .  A
N11         N336   1.320   1_455  A
N11         Mn41   2.204       .  S
N12         N335   1.321       .  A
N12          C20   1.354       .  A
N13          N14   1.319       .  A
N13          N15   1.316       .  A
N13        Mn100   2.200       .  S
N14         C183   1.351       .  A
N15         N178   1.321       .  A
N15         Mn41   2.199       .  S
N16         N177   1.321   1_545  A
N16          C21   1.353   1_545  A
N17          N18   1.321       .  A
N17        Mn100   2.203       .  S
N18         C344   1.352       .  A
Mn19         N94   2.201       .  S
Mn19         N98   2.201       .  S
Mn19       Cl286   2.528       .  S
C20         N342   1.352       .  A
C20         C370   1.477       .  S
C21         N176   1.352       .  A
C21         C226   1.473       .  S
N22          N28   1.316       .  A
N22         N185   1.320   1_545  A
N22         Mn30   2.200   1_545  S
N23         N184   1.320       .  A
N23          C31   1.352       .  A
N24          N26   1.316       .  A
N24          N25   1.321       .  A
N24        Mn123   2.206       .  S
N25         C356   1.353       .  A
N26         N351   1.320       .  A
N26         Mn30   2.199   1_545  S
N27         N350   1.320   1_455  A
N27          C32   1.352   1_455  A
N28          N29   1.322       .  A
N28        Mn123   2.209       .  S
N29         C193   1.353       .  A
Mn30        N487   2.202       .  S
Mn30        N491   2.200       .  S
Mn30       Cl448   2.561       .  S
C31         N191   1.354       .  A
C31          C77   1.476       .  S
C32         N349   1.353       .  A
C32          C59   1.475   1_655  S
N33          N39   1.316       .  A
N33         N358   1.320       .  A
N33        Mn527   2.204   1_545  S
N34         N357   1.320   1_455  A
N34          C44   1.353   1_455  A
N35          N36   1.320       .  A
N35          N37   1.316   1_545  A
N35         Mn42   2.207   1_554  S
N36         C207   1.353       .  A
N37         N200   1.321       .  A
N37        Mn527   2.198       .  S
N38         N199   1.320       .  A
N38          C45   1.352       .  A
N39          N40   1.323       .  A
N39         Mn42   2.212   1_554  S
N40         C368   1.354       .  A
Mn41        N519   2.201   1_455  S
Mn41        N523   2.198   1_455  S
Mn41       Cl205   2.561       .  S
Mn42        N105   2.208       .  S
Mn42        N109   2.209       .  S
Mn42       Cl367   2.531   1_545  S
Cl43       Mn262   2.529       .  S
Cl43       Mn435   2.561   1_554  S
Cl43       Mn203   2.561       .  S
Cl43       Mn366   2.530   1_465  S
C44         N364   1.353       .  A
C44          C50   1.477       .  S
C45         N198   1.353       .  A
C45          C68   1.475       .  S
C46         C344   1.476       .  S
C46          C47   1.403       .  A
C46          C51   1.400       .  A
C47          C48   1.416       .  A
C47          H52   1.077       .  S
C48          C57   1.518       .  S
C48          C49   1.416   1_455  A
C49          C50   1.404       .  A
C49          H53   1.077       .  S
C50          C51   1.400   1_655  A
C51          H54   1.084       .  S
C55         C334   1.473       .  S
C55          C56   1.403       .  A
C55          C60   1.397       .  A
C56          C57   1.417       .  A
C56          H61   1.076       .  S
C57          C58   1.418       .  A
C58          C59   1.404       .  A
C58          H62   1.077       .  S
C59          C60   1.396       .  A
C60          H63   1.084       .  S
C64         C183   1.474       .  S
C64          C65   1.403       .  A
C64          C69   1.396       .  A
C65          C66   1.418       .  A
C65          H70   1.076       .  S
C66          C75   1.519       .  S
C66          C67   1.418       .  A
C67          C68   1.404       .  A
C67          H71   1.077       .  S
C68          C69   1.396       .  A
C69          H72   1.084       .  S
C73         C171   1.475       .  S
C73          C74   1.402       .  A
C73          C78   1.399       .  A
C74          C75   1.416       .  A
C74          H79   1.077       .  S
C75          C76   1.417       .  A
C76          C77   1.405       .  A
C76          H80   1.077       .  S
C77          C78   1.399       .  A
C78          H81   1.084       .  S
N82         N245   1.321       .  A
N82          N88   1.315       .  A
N82        Mn597   2.195       .  S
N83         N244   1.321   1_545  A
N83          C90   1.353   1_545  A
N84          N86   1.316       .  A
N84          N85   1.321       .  A
N84        Mn100   2.201   1_556  S
N85         C415   1.352       .  A
N86         N411   1.321   1_455  A
N86        Mn597   2.206       .  S
N87         N410   1.320       .  A
N87          C91   1.354       .  A
N88          N89   1.319       .  A
N88        Mn100   2.201   1_556  S
N89         C252   1.352       .  A
C90         N251   1.352       .  A
C90         C316   1.473       .  S
C91         N409   1.352       .  A
C91         C460   1.475       .  S
N92          N98   1.316       .  A
N92         N417   1.321   1_455  A
N92        Mn122   2.199       .  S
N93         N416   1.321       .  A
N93         C101   1.353       .  A
N94          N95   1.321       .  A
N94          N96   1.316       .  A
N95         C264   1.352       .  A
N96         N259   1.320       .  A
N96        Mn122   2.204       .  S
N97         N258   1.320   1_545  A
N97         C102   1.353   1_545  A
N98          N99   1.320       .  A
N99         C425   1.352       .  A
Mn100      Cl205   2.528       .  S
C101        N423   1.352       .  A
C101        C451   1.474       .  S
C102        N257   1.352       .  A
C102        C307   1.475       .  S
N103        N266   1.321       .  A
N103        N109   1.316   1_565  A
N103       Mn111   2.198       .  S
N104        N265   1.321       .  A
N104        C112   1.353       .  A
N105        N107   1.316       .  A
N105        N106   1.322       .  A
N106        C437   1.353       .  A
N107        N432   1.320       .  A
N107       Mn111   2.202   1_545  S
N108        N431   1.320   1_455  A
N108        C113   1.353   1_455  A
N109        N110   1.320       .  A
N110        C274   1.353   1_545  A
Mn111       N568   2.199       .  S
Mn111       N572   2.203       .  S
Mn111      Cl367   2.562       .  S
C112        N272   1.353       .  A
C112        C158   1.475       .  S
C113        N430   1.354       .  A
C113        C140   1.478       .  S
N114        N439   1.320       .  A
N114        N120   1.316       .  A
N114       Mn608   2.198   1_545  S
N115        N438   1.321   1_455  A
N115        C125   1.352   1_455  A
N116        N117   1.321       .  A
N116        N118   1.316       .  A
N116       Mn123   2.204       .  S
N117        C288   1.352       .  A
N118        N281   1.320   1_545  A
N118       Mn608   2.204   1_545  S
N119        N280   1.320       .  A
N119        C126   1.353       .  A
N120        N121   1.320       .  A
N120       Mn123   2.207       .  S
N121        C449   1.353       .  A
Mn122       N600   2.200   1_455  S
Mn122       N604   2.204   1_455  S
Mn122      Cl286   2.561       .  S
Mn123      Cl448   2.531   1_545  S
Cl124      Mn181   2.527       .  S
Cl124      Mn354   2.562       .  S
Cl124      Mn284   2.561       .  S
Cl124      Mn447   2.531   1_465  S
C125        N445   1.353       .  A
C125        C131   1.475   1_655  S
C126        N279   1.353       .  A
C126        C149   1.476       .  S
C127        C425   1.474       .  S
C127        C128   1.403       .  A
C127        C132   1.397       .  A
C128        C129   1.418       .  A
C128        H133   1.077       .  S
C129        C138   1.518       .  S
C129        C130   1.418       .  A
C130        C131   1.404       .  A
C130        H134   1.077       .  S
C131        C132   1.397       .  A
C132        H135   1.084       .  S
C136        C415   1.476       .  S
C136        C137   1.403       .  A
C136        C141   1.400       .  A
C137        C138   1.416       .  A
C137        H142   1.077       .  S
C138        C139   1.417   1_455  A
C139        C140   1.405       .  A
C139        H143   1.077       .  S
C140        C141   1.400   1_655  A
C141        H144   1.084       .  S
C145        C264   1.474       .  S
C145        C146   1.403       .  A
C145        C150   1.399       .  A
C146        C147   1.415       .  A
C146        H151   1.077       .  S
C147        C156   1.517       .  S
C147        C148   1.416       .  A
C148        C149   1.404       .  A
C148        H152   1.077       .  S
C149        C150   1.399       .  A
C150        H153   1.084       .  S
C154        C252   1.474       .  S
C154        C155   1.403       .  A
C154        C159   1.397       .  A
C155        C156   1.417       .  A
C155        H160   1.077       .  S
C156        C157   1.417       .  A
C157        C158   1.404       .  A
C157        H161   1.077       .  S
C158        C159   1.396       .  A
C159        H162   1.084       .  S
N163        N169   1.316       .  A
N163       Mn354   2.206       .  S
N164        C171   1.354       .  A
N165        N167   1.316       .  A
N165        N166   1.319       .  A
N165       Mn181   2.202       .  S
N166        C496   1.352       .  A
N167        N492   1.321   1_455  A
N167       Mn354   2.199       .  S
N168        N491   1.321       .  A
N168        C172   1.353       .  A
N169        N170   1.321       .  A
N169       Mn181   2.200       .  S
C172        N490   1.352       .  A
C172        C541   1.475       .  S
N173        N179   1.316       .  A
N173        N498   1.320   1_455  A
N173       Mn203   2.202       .  S
N174        N497   1.320       .  A
N174        C182   1.353       .  A
N175        N176   1.319       .  A
N175        N177   1.316       .  A
N175       Mn262   2.200       .  S
N177       Mn203   2.199       .  S
N178        C183   1.353       .  A
N179        N180   1.321       .  A
N179       Mn262   2.200       .  S
N180        C506   1.352       .  A
Mn181       N256   2.203       .  S
Mn181       N260   2.203       .  S
C182        N504   1.353       .  A
C182        C532   1.475       .  S
N184        N190   1.316       .  A
N184       Mn192   2.200       .  S
N185        C193   1.352   1_565  A
N186        N188   1.316       .  A
N186        N187   1.321       .  A
N186       Mn285   2.209       .  S
N187        C518   1.354       .  A
N188        N513   1.321       .  A
N188       Mn192   2.197       .  S
N189        N512   1.321   1_455  A
N189        C194   1.352   1_455  A
N190        N191   1.322       .  A
N190       Mn285   2.210       .  S
Mn192       N325   2.200       .  S
Mn192       N329   2.199       .  S
Mn192      Cl610   2.561       .  S
C193        C239   1.475       .  S
C194        N511   1.354       .  A
C194        C221   1.476   1_655  S
N195        N520   1.320       .  A
N195        N201   1.316       .  A
N195       Mn365   2.203       .  S
N196        N519   1.320   1_455  A
N196        C206   1.352   1_455  A
N197        N198   1.320       .  A
N197        N199   1.316       .  A
N197       Mn204   2.205   1_554  S
N199       Mn365   2.198       .  S
N200        C207   1.352   1_565  A
N201        N202   1.322       .  A
N201       Mn204   2.210   1_554  S
N202        C530   1.354       .  A
Mn203       N357   2.203   1_465  S
Mn203       N361   2.198   1_455  S
Mn204       N267   2.205       .  S
Mn204       N271   2.208       .  S
Mn204      Cl529   2.531       .  S
Cl205      Mn597   2.561   1_554  S
Cl205      Mn528   2.530   1_455  S
C206        N526   1.353       .  A
C206        C212   1.475       .  S
C207        C230   1.475   1_545  S
C208        C506   1.473       .  S
C208        C209   1.403       .  A
C208        C213   1.398       .  A
C209        C210   1.416       .  A
C209        H214   1.076       .  S
C210        C219   1.518       .  S
C210        C211   1.416       .  A
C211        C212   1.404   1_455  A
C211        H215   1.076   1_455  S
C212        C213   1.398   1_655  A
C213        H216   1.084       .  S
C217        C496   1.473       .  S
C217        C218   1.403       .  A
C217        C222   1.397       .  A
C218        C219   1.418       .  A
C218        H223   1.076       .  S
C219        C220   1.418       .  A
C220        C221   1.404       .  A
C220        H224   1.076       .  S
C221        C222   1.396       .  A
C222        H225   1.084       .  S
C226        C227   1.402       .  A
C226        C231   1.396       .  A
C227        C228   1.417       .  A
C227        H232   1.076       .  S
C228        C237   1.516       .  S
C228        C229   1.418       .  A
C229        C230   1.404       .  A
C229        H233   1.077       .  S
C230        C231   1.396       .  A
C231        H234   1.084       .  S
C235        C236   1.402       .  A
C235        C240   1.399       .  A
C236        C237   1.416       .  A
C236        H241   1.077       .  S
C237        C238   1.416   1_565  A
C238        C239   1.404       .  A
C238        H242   1.077       .  S
C239        C240   1.399   1_545  A
C240        H243   1.084       .  S
N244        N250   1.316       .  A
N244       Mn435   2.198       .  S
N245        C252   1.353       .  A
N246        N248   1.316       .  A
N246        N247   1.321       .  A
N246       Mn262   2.201   1_556  S
N247        C577   1.352       .  A
N248        N573   1.320   1_455  A
N248       Mn435   2.202       .  S
N249        N572   1.320       .  A
N249        C253   1.353       .  A
N250        N251   1.319       .  A
N250       Mn262   2.201   1_556  S
C253        N571   1.352       .  A
C253        C622   1.473       .  S
N254        N260   1.316       .  A
N254        N579   1.321   1_455  A
N254       Mn284   2.200       .  S
N255        N578   1.321       .  A
N255        C263   1.353       .  A
N256        N257   1.321       .  A
N256        N258   1.316       .  A
N258       Mn284   2.204       .  S
N259        C264   1.353       .  A
N260        N261   1.320       .  A
N261        C587   1.352       .  A
C263        N585   1.352       .  A
C263        C613   1.474       .  S
N265        N271   1.316       .  A
N265       Mn273   2.199       .  S
N266        C274   1.353       .  A
N267        N269   1.316       .  A
N267        N268   1.322       .  A
N268        C599   1.353       .  A
N269        N594   1.320       .  A
N269       Mn273   2.204       .  S
N270        N593   1.320   1_455  A
N270        C275   1.352   1_455  A
N271        N272   1.320       .  A
Mn273       N406   2.199       .  S
Mn273       N410   2.206       .  S
Mn273      Cl529   2.561       .  S
C274        C320   1.476       .  S
C275        N592   1.354       .  A
C275        C302   1.475       .  S
N276        N601   1.320       .  A
N276        N282   1.316       .  A
N276       Mn446   2.197       .  S
N277        N600   1.321   1_455  A
N277        C287   1.353   1_455  A
N278        N279   1.322       .  A
N278        N280   1.316       .  A
N278       Mn285   2.207       .  S
N280       Mn446   2.204       .  S
N281        C288   1.353   1_565  A
N282        N283   1.320       .  A
N282       Mn285   2.210       .  S
N283        C611   1.353       .  A
Mn284       N438   2.198   1_465  S
Mn284       N442   2.203   1_465  S
Mn285      Cl610   2.531       .  S
Cl286      Mn516   2.562       .  S
Cl286      Mn609   2.531   1_455  S
C287        N607   1.354       .  A
C287        C293   1.477   1_655  S
C288        C311   1.475       .  S
C289        C587   1.475       .  S
C289        C290   1.404       .  A
C289        C294   1.397       .  A
C290        C291   1.418       .  A
C290        H295   1.076       .  S
C291        C300   1.521       .  S
C291        C292   1.419       .  A
C292        C293   1.405       .  A
C292        H296   1.076       .  S
C293        C294   1.396       .  A
C294        H297   1.084       .  S
C298        C577   1.474       .  S
C298        C299   1.404       .  A
C298        C303   1.398       .  A
C299        C300   1.417       .  A
C299        H304   1.076       .  S
C300        C301   1.417   1_455  A
C301        C302   1.404       .  A
C301        H305   1.076       .  S
C302        C303   1.398   1_655  A
C303        H306   1.084       .  S
C307        C308   1.403       .  A
C307        C312   1.399       .  A
C308        C309   1.416       .  A
C308        H313   1.077       .  S
C309        C318   1.516       .  S
C309        C310   1.415   1_565  A
C310        C311   1.403       .  A
C310        H314   1.077       .  S
C311        C312   1.399   1_545  A
C312        H315   1.084       .  S
C316        C317   1.403       .  A
C316        C321   1.396       .  A
C317        C318   1.417       .  A
C317        H322   1.077   1_565  S
C318        C319   1.418       .  A
C319        C320   1.404       .  A
C319        H323   1.077       .  S
C320        C321   1.396       .  A
C321        H324   1.084       .  S
N325        N488   1.320       .  A
N325        N331   1.316       .  A
N326        N487   1.320   1_545  A
N326        C333   1.353   1_545  A
N327        N329   1.315       .  A
N327        N328   1.320       .  A
N327       Mn343   2.200       .  S
N330        C334   1.353   1_655  A
N331        N332   1.321       .  A
N331       Mn343   2.202       .  S
N332        C495   1.352       .  A
C333        N494   1.352       .  A
C333        C559   1.474       .  S
N335        N341   1.316       .  A
N335       Mn365   2.206       .  S
N336        C344   1.353   1_655  A
N337        N338   1.319       .  A
N337        N339   1.316       .  A
N337       Mn424   2.200   1_554  S
N338        C507   1.352       .  A
N339        N502   1.321       .  A
N339       Mn365   2.199       .  S
N340        N501   1.321   1_545  A
N340        C345   1.353   1_545  A
N341        N342   1.321       .  A
N341       Mn424   2.204   1_554  S
Mn343       N418   2.196       .  S
Mn343       N422   2.203       .  S
Mn343      Cl610   2.527       .  S
C345        N500   1.352       .  A
C345        C550   1.473       .  S
N346        N509   1.320   1_545  A
N346        N352   1.316       .  A
N346       Mn354   2.205   1_645  S
N347        N508   1.320       .  A
N347        C355   1.353       .  A
N348        N350   1.316       .  A
N348        N349   1.320       .  A
N348       Mn447   2.207       .  S
N350       Mn354   2.198   1_645  S
N351        C356   1.352       .  A
N352        N353   1.322       .  A
N352       Mn447   2.206       .  S
N353        C517   1.353       .  A
C355        N515   1.353       .  A
C355        C401   1.475       .  S
C356        C383   1.475       .  S
N357        N363   1.316       .  A
N358        C368   1.353       .  A
N359        N360   1.320       .  A
N359        N361   1.316   1_545  A
N359       Mn366   2.209       .  S
N360        C531   1.353   1_545  A
N361        N524   1.321       .  A
N362        N523   1.321       .  A
N362        C369   1.352       .  A
N363        N364   1.322       .  A
N363       Mn366   2.210       .  S
Mn365      Cl529   2.560   1_554  S
Mn366       N429   2.211   1_554  S
Mn366       N433   2.210   1_554  S
Cl367      Mn586   2.529       .  S
Cl367      Mn527   2.561   1_556  S
C368        C374   1.478       .  S
C369        N522   1.353       .  A
C369        C392   1.475       .  S
C370        C371   1.403       .  A
C370        C375   1.400       .  A
C371        C372   1.417       .  A
C371        H376   1.076       .  S
C372        C381   1.520       .  S
C372        C373   1.417       .  A
C373        C374   1.405       .  A
C373        H377   1.076       .  S
C374        C375   1.400       .  A
C375        H378   1.084       .  S
C379        C380   1.403       .  A
C379        C384   1.397       .  A
C380        C381   1.418       .  A
C380        H385   1.076       .  S
C381        C382   1.418       .  A
C382        C383   1.404       .  A
C382        H386   1.076       .  S
C383        C384   1.397       .  A
C384        H387   1.084       .  S
C388        C507   1.474       .  S
C388        C389   1.403       .  A
C388        C393   1.396       .  A
C389        C390   1.418       .  A
C389        H394   1.076       .  S
C390        C399   1.517       .  S
C390        C391   1.418       .  A
C391        C392   1.403       .  A
C391        H395   1.076       .  S
C392        C393   1.396       .  A
C393        H396   1.084       .  S
C397        C495   1.474       .  S
C397        C398   1.403       .  A
C397        C402   1.399       .  A
C398        C399   1.416       .  A
C398        H403   1.077       .  S
C399        C400   1.416       .  A
C400        C401   1.403       .  A
C400        H404   1.076       .  S
C401        C402   1.399       .  A
C402        H405   1.084       .  S
N406        N569   1.321       .  A
N406        N412   1.316       .  A
N407        N568   1.321   1_545  A
N407        C414   1.353   1_545  A
N408        N410   1.316       .  A
N408        N409   1.321       .  A
N408       Mn424   2.200       .  S
N411        C415   1.354   1_655  A
N412        N413   1.319       .  A
N412       Mn424   2.204       .  S
N413        C576   1.352       .  A
C414        N575   1.352       .  A
C414        C640   1.474       .  S
N416        N422   1.316       .  A
N416       Mn446   2.197       .  S
N417        C425   1.353   1_655  A
N418        N419   1.320       .  A
N418        N420   1.316       .  A
N419        C588   1.351       .  A
N420        N583   1.321       .  A
N420       Mn446   2.207       .  S
N421        N582   1.320   1_545  A
N421        C426   1.353   1_545  A
N422        N423   1.319       .  A
Mn424      Cl529   2.529       .  S
C426        N581   1.352       .  A
C426        C631   1.475       .  S
N427        N590   1.321       .  A
N427        N433   1.316   1_565  A
N427       Mn435   2.195   1_655  S
N428        N589   1.320       .  A
N428        C436   1.352       .  A
N429        N431   1.316       .  A
N429        N430   1.323       .  A
N431       Mn435   2.204   1_645  S
N432        C437   1.353       .  A
N433        N434   1.320       .  A
N434        C598   1.353       .  A
C436        N596   1.353       .  A
C436        C482   1.474       .  S
C437        C464   1.476       .  S
N438        N444   1.316       .  A
N439        C449   1.352       .  A
N440        N441   1.322       .  A
N440        N442   1.316       .  A
N440       Mn447   2.207       .  S
N441        C612   1.353       .  A
N442        N605   1.320   1_545  A
N443        N604   1.320       .  A
N443        C450   1.353       .  A
N444        N445   1.320       .  A
N444       Mn447   2.206       .  S
Mn446      Cl610   2.561       .  S
Cl448      Mn505   2.528       .  S
Cl448      Mn608   2.561       .  S
C449        C455   1.474       .  S
C450        N603   1.354       .  A
C450        C473   1.477       .  S
C451        C452   1.403       .  A
C451        C456   1.397       .  A
C452        C453   1.417       .  A
C452        H457   1.076       .  S
C453        C462   1.517       .  S
C453        C454   1.417       .  A
C454        C455   1.403       .  A
C454        H458   1.076       .  S
C455        C456   1.396       .  A
C456        H459   1.084       .  S
C460        C461   1.403       .  A
C460        C465   1.400       .  A
C461        C462   1.415       .  A
C461        H466   1.077       .  S
C462        C463   1.416       .  A
C463        C464   1.404       .  A
C463        H467   1.077       .  S
C464        C465   1.400       .  A
C465        H468   1.084       .  S
C469        C588   1.474       .  S
C469        C470   1.402       .  A
C469        C474   1.400       .  A
C470        C471   1.414       .  A
C470        H475   1.077       .  S
C471        C480   1.515       .  S
C471        C472   1.417       .  A
C472        C473   1.405       .  A
C472        H476   1.077       .  S
C473        C474   1.399       .  A
C474        H477   1.084       .  S
C478        C576   1.474       .  S
C478        C479   1.403       .  A
C478        C483   1.396       .  A
C479        C480   1.418       .  A
C479        H484   1.077       .  S
C480        C481   1.417       .  A
C481        C482   1.404       .  A
C481        H485   1.077       .  S
C482        C483   1.396       .  A
C483        H486   1.084       .  S
N487        N493   1.316       .  A
N488        C495   1.353       .  A
N489        N491   1.316       .  A
N489        N490   1.319       .  A
N489       Mn505   2.201       .  S
N492        C496   1.353   1_655  A
N493        N494   1.321       .  A
N493       Mn505   2.202       .  S
N497        N503   1.316       .  A
N497       Mn527   2.203       .  S
N498        C506   1.353   1_655  A
N499        N500   1.319       .  A
N499        N501   1.316       .  A
N499       Mn586   2.200   1_554  S
N501       Mn527   2.198       .  S
N502        C507   1.353       .  A
N503        N504   1.321       .  A
N503       Mn586   2.204   1_554  S
Mn505       N580   2.200       .  S
Mn505       N584   2.202       .  S
N508        N514   1.316       .  A
N508       Mn516   2.204   1_655  S
N509        C517   1.353   1_565  A
N510        N512   1.316       .  A
N510        N511   1.321       .  A
N510       Mn609   2.211       .  S
N512       Mn516   2.198   1_655  S
N513        C518   1.352       .  A
N514        N515   1.322       .  A
N514       Mn609   2.206       .  S
C517        C563   1.476       .  S
C518        C545   1.476       .  S
N519        N525   1.316       .  A
N520        C530   1.352       .  A
N521        N522   1.320       .  A
N521        N523   1.316       .  A
N521       Mn528   2.208       .  S
N524        C531   1.353       .  A
N525        N526   1.322       .  A
N525       Mn528   2.207       .  S
Mn528       N591   2.207   1_554  S
Mn528       N595   2.208   1_554  S
C530        C536   1.476       .  S
C531        C554   1.476       .  S
C532        C533   1.404       .  A
C532        C537   1.398       .  A
C533        C534   1.417       .  A
C533        H538   1.076       .  S
C534        C543   1.521       .  S
C534        C535   1.417       .  A
C535        C536   1.405       .  A
C535        H539   1.076       .  S
C536        C537   1.398       .  A
C537        H540   1.084       .  S
C541        C542   1.403       .  A
C541        C546   1.397       .  A
C542        C543   1.418       .  A
C542        H547   1.076       .  S
C543        C544   1.419       .  A
C544        C545   1.405       .  A
C544        H548   1.076       .  S
C545        C546   1.396       .  A
C546        H549   1.084       .  S
C550        C551   1.403       .  A
C550        C555   1.396       .  A
C551        C552   1.417       .  A
C551        H556   1.077       .  S
C552        C561   1.517       .  S
C552        C553   1.418       .  A
C553        C554   1.404       .  A
C553        H557   1.077       .  S
C554        C555   1.396       .  A
C555        H558   1.084       .  S
C559        C560   1.403       .  A
C559        C564   1.399       .  A
C560        C561   1.416       .  A
C560        H565   1.077       .  S
C561        C562   1.416   1_565  A
C562        C563   1.403       .  A
C562        H566   1.077       .  S
C563        C564   1.399   1_545  A
C564        H567   1.084       .  S
N568        N574   1.316       .  A
N569        C576   1.353       .  A
N570        N572   1.316       .  A
N570        N571   1.321       .  A
N570       Mn586   2.200       .  S
N573        C577   1.353   1_655  A
N574        N575   1.319       .  A
N574       Mn586   2.204       .  S
N578        N584   1.316       .  A
N578       Mn608   2.199       .  S
N579        C587   1.353   1_655  A
N580        N581   1.321       .  A
N580        N582   1.316       .  A
N582       Mn608   2.206       .  S
N583        C588   1.354       .  A
N584        N585   1.319       .  A
N589        N595   1.316       .  A
N589       Mn597   2.195   1_655  S
N590        C598   1.352   1_565  A
N591        N593   1.316       .  A
N591        N592   1.322       .  A
N593       Mn597   2.202   1_655  S
N594        C599   1.353       .  A
N595        N596   1.320       .  A
C598        C644   1.476   1_545  S
C599        C626   1.475       .  S
N600        N606   1.316       .  A
N601        C611   1.352       .  A
N602        N603   1.322       .  A
N602        N604   1.316       .  A
N602       Mn609   2.211       .  S
N605        C612   1.353   1_565  A
N606        N607   1.321       .  A
N606       Mn609   2.210       .  S
C611        C617   1.475       .  S
C612        C635   1.476       .  S
C613        C614   1.402       .  A
C613        C618   1.397       .  A
C614        C615   1.417       .  A
C614        H619   1.077       .  S
C615        C624   1.516       .  S
C615        C616   1.417       .  A
C616        C617   1.404       .  A
C616        H620   1.077       .  S
C617        C618   1.397       .  A
C618        H621   1.084       .  S
C622        C623   1.402       .  A
C622        C627   1.399       .  A
C623        C624   1.415       .  A
C623        H628   1.077       .  S
C624        C625   1.415       .  A
C625        C626   1.403       .  A
C625        H629   1.077       .  S
C626        C627   1.399       .  A
C627        H630   1.084       .  S
C631        C632   1.403       .  A
C631        C636   1.399       .  A
C632        C633   1.416       .  A
C632        H637   1.077       .  S
C633        C642   1.516       .  S
C633        C634   1.416   1_565  A
C634        C635   1.404       .  A
C634        H638   1.077       .  S
C635        C636   1.399   1_545  A
C636        H639   1.084       .  S
C640        C641   1.403       .  A
C640        C645   1.396       .  A
C641        C642   1.417       .  A
C641        H646   1.077   1_565  S
C642        C643   1.418       .  A
C643        C644   1.405       .  A
C643        H647   1.077       .  S
C644        C645   1.396       .  A
C645        H648   1.084       .  S
