geometry optimzed in LAMMPS
_audit_creation_date              2020-12-01 
_audit_creation_method            'lammps2cif' 
_symmetry_space_group_name_H-M    'P1' 
_symmetry_Int_Tables_number       1 
_symmetry_cell_setting            triclinic 
loop_ 
_symmetry_equiv_pos_as_xyz 
  x,y,z 
_cell_length_a                    30.6258242 
_cell_length_b                    26.969475392147142 
_cell_length_c                    33.37871575104779 
_cell_angle_alpha                 86.25600990036115 
_cell_angle_beta                  87.40288483598124 
_cell_angle_gamma                 87.81541229612989 
loop_ 
_atom_site_label 
_atom_site_type_symbol 
_atom_site_fract_x 
_atom_site_fract_y 
_atom_site_fract_z 
_atom_site_charge 
C1          C  0.99756923  0.55760662  0.03979342     0.81800
N2          N  0.46399359  0.58119561  0.01921650    -0.76500
C3          C  0.47250118  0.62271204  0.32834921     0.84300
N4          N  0.51347196  0.63871958  0.32521465    -0.76400
C5          C  0.04435806  0.62183004  0.35039541     0.84400
N6          N  0.03678276  0.58038033  0.04129731    -0.78200
C7          C  0.99153019  0.50909423  0.06215376     0.81800
N8          N  0.02713196  0.48436632  0.07795439    -0.76500
C9          C  0.02294300  0.43958358  0.09864838     0.84300
N10         N  0.98310239  0.42062944  0.10362253    -0.76400
C11         C  0.44860818  0.44129418  0.08426432     0.84400
N12         N  0.45270230  0.48556338  0.06252859    -0.78200
O13         O  0.46017435  0.81537282  0.02919643    -0.76900
C14         C  0.44020600  0.66364719  0.31992977     0.84100
O15         O  0.43640559  0.83464775  0.22057691    -0.78000
O16         O  0.30603823  0.71773349  0.27305457    -0.79500
O17         O  0.30022298  0.79541264  0.03330288    -0.79300
O18         O  0.39516520  0.83007759  0.05760198    -0.77900
Zn19       Zn  0.44275351  0.77913381  0.31392404     1.55700
O20         O  0.32895242  0.71867438  0.03217857    -0.79300
Cd21       Cd  0.35678203  0.82718415  0.01049138     1.59700
Cd22       Cd  0.36951133  0.82236268  0.24895176     1.59600
O23         O  0.34964238  0.90026013  0.99191306    -0.79300
O24         O  0.38317159  0.78700478  0.30147002    -1.89800
Cd25       Cd  0.35667181  0.72008054  0.30968739     1.59900
O26         O  0.33225179  0.88929931  0.26285401    -0.79300
O27         O  0.40063155  0.65797574  0.31160943    -0.77900
C28         C  0.47543590  0.82614862  0.23411940     0.84600
C29         C  0.43644214  0.83084663  0.05830922     0.84300
O30         O  0.45502090  0.70695285  0.32182017    -0.76900
C31         C  0.30609075  0.75186176  0.04945616     0.85100
O32         O  0.47981637  0.80402364  0.26829452    -0.77000
C33         C  0.32835937  0.91370224  0.29472499     0.85200
C34         C  0.29390776  0.74330689  0.24193352     0.85500
O35         O  0.31661156  0.77992784  0.22609947    -0.79400
N36         N  0.25330211  0.72886538  0.22542066    -0.01900
C37         C  0.24316153  0.72309924  0.18687142     0.00700
C38         C  0.20200423  0.70422087  0.18500310    -0.22200
C39         C  0.18568699  0.69822356  0.22368233    -0.22400
C40         C  0.21741404  0.71365333  0.24759132     0.00600
H41         H  0.18566219  0.69458750  0.15872138     0.14400
H42         H  0.15332883  0.68617105  0.23322856     0.14400
O43         O  0.06080785  0.70451678  0.01430366    -0.76900
C44         C  0.03542941  0.82774079  0.08975437     0.84100
O45         O  0.11592717  0.81047242  0.26436970    -0.78000
O46         O  0.17016642  0.88971951  0.04602782    -0.79500
O47         O  0.20748152  0.71635077  0.07282460    -0.79300
O48         O  0.11044361  0.65361352  0.04340494    -0.77900
Zn49       Zn  0.06994973  0.77560528  0.01678488     1.55700
O50         O  0.19277237  0.78725254  0.10384504    -0.79300
Cd51       Cd  0.15657008  0.71022325  0.03437771     1.59700
Cd52       Cd  0.15672351  0.80573320  0.31140508     1.59600
O53         O  0.18354783  0.69453389  0.31149811    -0.79300
O54         O  0.12909902  0.77932191  0.02822858    -1.89800
Cd55       Cd  0.13942121  0.82384675  0.07189438     1.59900
O56         O  0.21347649  0.76684764  0.29946933    -0.79300
O57         O  0.07410044  0.83913605  0.09949152    -0.77900
C58         C  0.07501435  0.82090313  0.26547382     0.84600
C59         C  0.07446395  0.66083856  0.02561590     0.84300
O60         O  0.03133849  0.80106281  0.06046373    -0.76900
C61         C  0.21774628  0.74878265  0.09687636     0.85100
O62         O  0.05227549  0.81361308  0.29795569    -0.77000
C63         C  0.20740369  0.72360696  0.28937221     0.85200
C64         C  0.18402188  0.90040287  0.00969142     0.85500
O65         O  0.17656148  0.87388524  0.31458353    -0.79400
N66         N  0.51552200  0.84548450  0.21349770    -0.01900
C67         C  0.52104312  0.86863389  0.17597429     0.00700
C68         C  0.06216987  0.88683015  0.16918339    -0.22200
C69         C  0.08516421  0.87104411  0.20158970    -0.22400
C70         C  0.05692147  0.84532068  0.22819985     0.00600
H71         H  0.07448866  0.90858611  0.14298925     0.14400
H72         H  0.11934763  0.87762155  0.20538936     0.14400
N73         N  0.26066602  0.74307490  0.11372817    -0.01900
C74         C  0.27255645  0.73160785  0.15206554     0.00700
C75         C  0.31734408  0.72391482  0.15390601    -0.22200
C76         C  0.33420006  0.73214199  0.11593868    -0.22400
C77         C  0.29912182  0.74333019  0.09225396     0.00600
H78         H  0.33600792  0.71050593  0.17934268     0.14400
H79         H  0.36833508  0.72856961  0.10623258     0.14400
N80         N  0.99526795  0.84901083  0.10867117    -0.01900
C81         C  0.98969085  0.87073513  0.14456594     0.00700
C82         C  0.44838088  0.89130260  0.15016719    -0.22200
C83         C  0.42554047  0.87883023  0.11872657    -0.22400
C84         C  0.45400925  0.85233573  0.09391089     0.00600
H85         H  0.43576125  0.91188504  0.17521890     0.14400
H86         H  0.39120271  0.88780777  0.11461572     0.14400
O87         O  0.27867126  0.28836680  0.12156926    -0.76900
C88         C  0.29403378  0.32947644  0.31907154     0.84100
O89         O  0.36335321  0.15211323  0.05617523    -0.78000
O90         O  0.42933802  0.29448134  0.31458696    -0.79500
O91         O  0.40454405  0.37810876  0.10882622    -0.79300
O92         O  0.32528558  0.31786549  0.16119360    -0.77900
Zn93       Zn  0.30980276  0.27313547  0.06751706     1.55700
O94         O  0.40928800  0.39359145  0.04181503    -0.79300
Cd95       Cd  0.37910412  0.30992344  0.12101231     1.59700
Cd96       Cd  0.40430201  0.21446108  0.06024311     1.59600
O97         O  0.42312659  0.26544582  0.15426917    -0.79300
O98         O  0.37031775  0.28106144  0.06708226    -1.89800
Cd99       Cd  0.38461538  0.32884196  0.01992429     1.59900
O100        O  0.44093802  0.20534403  0.11253996    -0.79300
O101        O  0.33307300  0.34408056  0.31525155    -0.77900
C102        C  0.32205976  0.15963227  0.05786993     0.84600
C103        C  0.28700454  0.30422436  0.15552050     0.84300
O104        O  0.28165271  0.30352336  0.01711392    -0.76900
C105        C  0.41589727  0.40515162  0.07767179     0.85100
O106        O  0.30603299  0.20301942  0.06227908    -0.77000
C107        C  0.44462809  0.22580061  0.14600998     0.85200
C108        C  0.44834569  0.25180061  0.31156365     0.85500
O109        O  0.44379597  0.21696775  0.00591311    -0.79400
N110        N  0.26301252  0.34793334  0.28961851    -0.01900
C111        C  0.26845117  0.34762191  0.24859239     0.00700
C112        C  0.23950120  0.38407068  0.23256992    -0.22200
C113        C  0.21010914  0.39671811  0.26296033    -0.22400
C114        C  0.22410895  0.37192711  0.29772408     0.00600
H115        H  0.23273840  0.39069891  0.20106719     0.14400
H116        H  0.17868440  0.41563592  0.25876301     0.14400
O117        O  0.18823058  0.20740477  0.05457897    -0.76900
C118        C  0.19255008  0.35504527  0.33059447     0.84100
O119        O  0.14455081  0.28927735  0.16151615    -0.78000
O120        O  0.07271061  0.39706854  0.05858174    -0.79500
O121        O  0.04999611  0.23555074  0.00163248    -0.79300
O122        O  0.13597503  0.15822198  0.04016137    -0.77900
Zn123      Zn  0.17471406  0.27583491  0.06551072     1.55700
O124        O  0.05790424  0.31749408  0.32085193    -0.79300
Cd125      Cd  0.08767937  0.21566798  0.05122997     1.59700
Cd126      Cd  0.09394990  0.29638900  0.12199220     1.59600
O127        O  0.04743197  0.18452940  0.09819873    -0.79300
O128        O  0.11349261  0.28096131  0.06663642    -1.89800
Cd129      Cd  0.10028449  0.33954795  0.02859580     1.59900
O130        O  0.05264222  0.24190174  0.14293361    -0.79300
O131        O  0.15265134  0.36894141  0.32863652    -0.77900
C132        C  0.18544790  0.28277820  0.15410690     0.84600
C133        C  0.17598155  0.16500991  0.04634010     0.84300
O134        O  0.20390846  0.32101280  0.02308308    -0.76900
C135        C  0.04190475  0.27609061  0.31395889     0.85100
O136        O  0.20048583  0.28030791  0.11840700    -0.77000
C137        C  0.03823067  0.20114854  0.13255859     0.85200
C138        C  0.05689348  0.40081260  0.09412420     0.85500
O139        O  0.06142691  0.36618600  0.12186423    -0.79400
N140        N  0.47928618  0.24635704  0.27795621    -0.01900
C141        C  0.46790201  0.24822327  0.23843307     0.00700
C142        C  0.99199390  0.28563473  0.21781133    -0.22200
C143        C  0.02342932  0.29930103  0.24246296    -0.22400
C144        C  0.01505979  0.27407538  0.27877298     0.00600
H145        H  0.99327627  0.29472825  0.18574998     0.14400
H146        H  0.05016390  0.32362152  0.23434545     0.14400
N147        N  0.25549528  0.29780998  0.18937712    -0.01900
C148        C  0.26435738  0.29860897  0.22940848     0.01500
C149        C  0.23404458  0.26855408  0.25091175    -0.22200
C150        C  0.20163829  0.25956916  0.22568111    -0.22400
C151        C  0.21513263  0.27830281  0.18813483     0.00600
H152        H  0.23015690  0.26315828  0.28328783     0.14400
H153        H  0.17059266  0.24319805  0.23429729     0.14400
N154        N  0.47274874  0.20057599  0.17511166    -0.01900
C155        C  0.47292697  0.20117117  0.21620049     0.00700
C156        C  0.00456231  0.16626033  0.22944923    -0.22200
C157        C  0.02811498  0.15113054  0.19606698    -0.22400
C158        C  0.00946868  0.17533851  0.16307892     0.00600
H159        H  0.01619949  0.16119859  0.25964528     0.14400
H160        H  0.06044580  0.13349830  0.19659429     0.14400
C161        C  0.25499766  0.00976177  0.00626714     0.81800
N162        N  0.29115676  0.99037202  0.98613199    -0.76500
C163        C  0.28916311  0.94538241  0.30303025     0.84300
N164        N  0.25238988  0.91963819  0.30963726    -0.76400
C165        C  0.21798743  0.93635512  0.33247001     0.84400
N166        N  0.21907547  0.98164175  0.01408528    -0.78200
C167        C  0.25418504  0.05954908  0.02215709     0.81800
N168        N  0.29194188  0.08064153  0.03303507    -0.76500
C169        C  0.28816750  0.12273410  0.05373164     0.84300
N170        N  0.24814074  0.14220530  0.06177925    -0.76400
C171        C  0.21181892  0.12670620  0.04668880     0.84400
N172        N  0.21426424  0.08429844  0.02692610    -0.78200
C173        C  0.99756892  0.55760762  0.37312718     0.81800
N174        N  0.46399330  0.58119654  0.35255026    -0.76500
C175        C  0.47250146  0.62271130  0.66168257     0.84300
N176        N  0.51347225  0.63871872  0.65854806    -0.76400
C177        C  0.04435827  0.62182925  0.68372901     0.84400
N178        N  0.03678259  0.58038113  0.37463092    -0.78200
C179        C  0.99153016  0.50909490  0.39548718     0.81800
N180        N  0.02713200  0.48436684  0.41128741    -0.76500
C181        C  0.02294305  0.43958387  0.43198127     0.84300
N182        N  0.98310249  0.42062962  0.43695582    -0.76400
C183        C  0.44860830  0.44129458  0.41759781     0.84400
N184        N  0.45270238  0.48556398  0.39586232    -0.78200
O185        O  0.46017470  0.81537356  0.36252969    -0.76900
C186        C  0.44020638  0.66364646  0.65326302     0.84100
O187        O  0.43640577  0.83464622  0.55390992    -0.78000
O188        O  0.30603816  0.71773224  0.60638804    -0.79500
O189        O  0.30022327  0.79541453  0.36663671    -0.79300
O190        O  0.39516562  0.83007997  0.39093466    -0.77900
Zn191      Zn  0.44275368  0.77913315  0.64725736     1.55700
O192        O  0.32895205  0.71867618  0.36551206    -0.79300
Cd193      Cd  0.35678214  0.82718570  0.34382441     1.59700
Cd194      Cd  0.36951149  0.82236161  0.58228487     1.59600
O195        O  0.34964233  0.90026151  0.32524558    -0.79300
O196        O  0.38317178  0.78700371  0.63480308    -1.89800
Cd197      Cd  0.35667191  0.72007949  0.64302077     1.59900
O198        O  0.33225216  0.88929854  0.59618703    -0.79300
O199        O  0.40063191  0.65797489  0.64494280    -0.77900
C200        C  0.47543605  0.82614735  0.56745264     0.84600
C201        C  0.43644260  0.83084819  0.39164217     0.84300
O202        O  0.45502123  0.70695215  0.65515351    -0.76900
C203        C  0.30609068  0.75186360  0.38278982     0.85100
O204        O  0.47981653  0.80402279  0.60162795    -0.77000
C205        C  0.32835974  0.91370158  0.62805801     0.85200
C206        C  0.29390771  0.74330580  0.57526697     0.85500
O207        O  0.31661143  0.77992689  0.55943293    -0.79400
N208        N  0.25330192  0.72886447  0.55875423    -0.01900
C209        C  0.24316123  0.72309876  0.52020489     0.00700
C210        C  0.20200380  0.70422080  0.51833642    -0.22200
C211        C  0.18568670  0.69822300  0.55701561    -0.22400
C212        C  0.21741383  0.71365245  0.58092476     0.00600
H213        H  0.18566162  0.69458767  0.49205432     0.14400
H214        H  0.15332839  0.68617074  0.56656189     0.14400
O215        O  0.06080819  0.70451753  0.34763644    -0.76900
C216        C  0.03542987  0.82774145  0.42308708     0.84100
O217        O  0.11592727  0.81047084  0.59770351    -0.78000
O218        O  0.17016642  0.88972048  0.37935979    -0.79500
O219        O  0.20748137  0.71635135  0.40615842    -0.79300
O220        O  0.11044369  0.65361447  0.37673835    -0.77900
Zn221      Zn  0.06995018  0.77560605  0.35011768     1.55700
O222        O  0.19277271  0.78725393  0.43717787    -0.79300
Cd223      Cd  0.15657034  0.71022408  0.36771106     1.59700
Cd224      Cd  0.15672360  0.80573222  0.64473877     1.59600
O225        O  0.18354760  0.69453281  0.64483146    -0.79300
O226        O  0.12909959  0.77932286  0.36156126    -1.89800
Cd227      Cd  0.13942155  0.82384789  0.40522687     1.59900
O228        O  0.21347645  0.76684651  0.63280295    -0.79300
O229        O  0.07410087  0.83913709  0.43282395    -0.77900
C230        C  0.07501447  0.82090165  0.59880743     0.84600
C231        C  0.07446409  0.66083937  0.35894917     0.84300
O232        O  0.03133887  0.80106345  0.39379648    -0.76900
C233        C  0.21774639  0.74878373  0.43020968     0.85100
O234        O  0.05227544  0.81361190  0.63128928    -0.77000
C235        C  0.20740355  0.72360589  0.62270567     0.85200
C236        C  0.18402177  0.90040370  0.34302328     0.85500
O237        O  0.17656218  0.87388425  0.64791710    -0.79400
N238        N  0.51552221  0.84548312  0.54683097    -0.01900
C239        C  0.52104366  0.86863280  0.50930762     0.00700
C240        C  0.06217073  0.88682899  0.50251698    -0.22200
C241        C  0.08516479  0.87104255  0.53492327    -0.22400
C242        C  0.05692185  0.84531907  0.56153325     0.00600
H243        H  0.07448986  0.90858568  0.47632305     0.14400
H244        H  0.11934813  0.87762003  0.53872328     0.14400
N245        N  0.26066591  0.74307593  0.44706177    -0.01900
C246        C  0.27255621  0.73160813  0.48539915     0.00700
C247        C  0.31734385  0.72391498  0.48723952    -0.22200
C248        C  0.33419989  0.73214302  0.44927232    -0.22400
C249        C  0.29912175  0.74333190  0.42558766     0.00600
H250        H  0.33600773  0.71050547  0.51267613     0.14400
H251        H  0.36833497  0.72857074  0.43956617     0.14400
N252        N  0.99526852  0.84901143  0.44200414    -0.01900
C253        C  0.98969155  0.87073494  0.47789922     0.00700
C254        C  0.44838168  0.89130246  0.48350077    -0.22200
C255        C  0.42554128  0.87883094  0.45205998    -0.22400
C256        C  0.45400996  0.85233677  0.42724397     0.00600
H257        H  0.43576207  0.91188427  0.50855272     0.14400
H258        H  0.39120344  0.88780852  0.44794954     0.14400
O259        O  0.27867094  0.28836730  0.45490287    -0.76900
C260        C  0.29403363  0.32947715  0.65240488     0.84100
O261        O  0.36335296  0.15211336  0.38950914    -0.78000
O262        O  0.42933780  0.29448174  0.64792021    -0.79500
O263        O  0.40454428  0.37810911  0.44215984    -0.79300
O264        O  0.32528559  0.31786549  0.49452727    -0.77900
Zn265      Zn  0.30980264  0.27313546  0.40085069     1.55700
O266        O  0.40928774  0.39359181  0.37514874    -0.79300
Cd267      Cd  0.37910414  0.30992370  0.45434596     1.59700
Cd268      Cd  0.40430166  0.21446127  0.39357674     1.59600
O269        O  0.42312673  0.26544608  0.48760278    -0.79300
O270        O  0.37031751  0.28106156  0.40041593    -1.89800
Cd271      Cd  0.38461508  0.32884230  0.35325819     1.59900
O272        O  0.44093786  0.20534417  0.44587339    -0.79300
O273        O  0.33307291  0.34408087  0.64858479    -0.77900
C274        C  0.32205947  0.15963230  0.39120413     0.84600
C275        C  0.28700438  0.30422482  0.48885407     0.84300
O276        O  0.28165261  0.30352278  0.35044730    -0.76900
C277        C  0.41589731  0.40515201  0.41100541     0.85100
O278        O  0.30603252  0.20301945  0.39561315    -0.77000
C279        C  0.44462801  0.22580073  0.47934346     0.85200
C280        C  0.44834555  0.25180105  0.64489684     0.85500
O281        O  0.44379549  0.21696799  0.33924656    -0.79400
N282        N  0.26301245  0.34793412  0.62295186    -0.01900
C283        C  0.26845098  0.34762277  0.58192566     0.00700
C284        C  0.23950100  0.38407152  0.56590312    -0.22200
C285        C  0.21010922  0.39671918  0.59629363    -0.22400
C286        C  0.22410907  0.37192804  0.63105746     0.00600
H287        H  0.23273766  0.39069940  0.53440009     0.14400
H288        H  0.17868450  0.41563686  0.59209649     0.14400
O289        O  0.18823050  0.20740470  0.38791315    -0.76900
C290        C  0.19255019  0.35504611  0.66392793     0.84100
O291        O  0.14455023  0.28927769  0.49484966    -0.78000
O292        O  0.07271121  0.39706898  0.39191503    -0.79500
O293        O  0.04999604  0.23555107  0.33496579    -0.79300
O294        O  0.13597514  0.15822205  0.37349479    -0.77900
Zn295      Zn  0.17471388  0.27583506  0.39884441     1.55700
O296        O  0.05790442  0.31749497  0.65418485    -0.79300
Cd297      Cd  0.08767928  0.21566796  0.38456324     1.59700
Cd298      Cd  0.09394964  0.29638911  0.45532556     1.59600
O299        O  0.04743182  0.18452917  0.43153183    -0.79300
O300        O  0.11349230  0.28096135  0.39996993    -1.89800
Cd301      Cd  0.10028443  0.33954783  0.36192916     1.59900
O302        O  0.05264218  0.24190173  0.47626686    -0.79300
O303        O  0.15265160  0.36894260  0.66197013    -0.77900
C304        C  0.18544743  0.28277899  0.48744043     0.84600
C305        C  0.17598151  0.16500984  0.37967426     0.84300
O306        O  0.20390838  0.32101260  0.35641641    -0.76900
C307        C  0.04190481  0.27609148  0.64729184     0.85100
O308        O  0.20048550  0.28030885  0.45174058    -0.77000
C309        C  0.03823063  0.20114845  0.46589178     0.85200
C310        C  0.05689353  0.40081290  0.42745727     0.85500
O311        O  0.06142662  0.36618618  0.45519722    -0.79400
N312        N  0.47928610  0.24635768  0.61128941    -0.01900
C313        C  0.46790208  0.24822375  0.57176622     0.00700
C314        C  0.99199400  0.28563525  0.55114435    -0.22200
C315        C  0.02342915  0.29930179  0.57579595    -0.22400
C316        C  0.01505984  0.27407625  0.61210603     0.00600
H317        H  0.99327634  0.29472872  0.51908293     0.14400
H318        H  0.05016383  0.32362267  0.56767830     0.14400
N319        N  0.25549504  0.29781065  0.52271056    -0.01900
C320        C  0.26435721  0.29860972  0.56274184     0.01500
C321        C  0.23404436  0.26855483  0.58424516    -0.22200
C322        C  0.20163787  0.25957022  0.55901459    -0.22400
C323        C  0.21513222  0.27830365  0.52146832     0.00600
H324        H  0.23015657  0.26315958  0.61662088     0.14400
H325        H  0.17059232  0.24319878  0.56763103     0.14400
N326        N  0.47274875  0.20057611  0.50844502    -0.01900
C327        C  0.47292705  0.20117150  0.54953381     0.00700
C328        C  0.00456230  0.16626060  0.56278250    -0.22200
C329        C  0.02811478  0.15113060  0.52940030    -0.22400
C330        C  0.00946856  0.17533852  0.49641226     0.00600
H331        H  0.01619931  0.16119858  0.59297845     0.14400
H332        H  0.06044555  0.13349824  0.52992763     0.14400
C333        C  0.25499764  0.00976244  0.33960015     0.81800
N334        N  0.29115679  0.99037286  0.31946492    -0.76500
C335        C  0.28916340  0.94538184  0.63636323     0.84300
N336        N  0.25239034  0.91963737  0.64297050    -0.76400
C337        C  0.21798783  0.93635447  0.66580319     0.84400
N338        N  0.21907532  0.98164258  0.34741773    -0.78200
C339        C  0.25418484  0.05954935  0.35549077     0.81800
N340        N  0.29194166  0.08064166  0.36636895    -0.76500
C341        C  0.28816732  0.12273392  0.38706595     0.84300
N342        N  0.24814053  0.14220482  0.39511401    -0.76400
C343        C  0.21181875  0.12670607  0.38002311     0.84400
N344        N  0.21426402  0.08429867  0.36025991    -0.78200
C345        C  0.99756882  0.55760712  0.70646074     0.81800
N346        N  0.46399339  0.58119598  0.68588369    -0.76500
C347        C  0.47250154  0.62271094  0.99501525     0.84300
N348        N  0.51347228  0.63871862  0.99188071    -0.76400
C349        C  0.04435834  0.62182914  0.01706174     0.84400
N350        N  0.03678254  0.58038045  0.70796452    -0.78200
C351        C  0.99152978  0.50909465  0.72882093     0.81800
N352        N  0.02713157  0.48436657  0.74462122    -0.76500
C353        C  0.02294266  0.43958373  0.76531518     0.84300
N354        N  0.98310205  0.42062951  0.77028944    -0.76400
C355        C  0.44860786  0.44129447  0.75093157     0.84400
N356        N  0.45270199  0.48556378  0.72919596    -0.78200
O357        O  0.46017489  0.81537323  0.69586287    -0.76900
C358        C  0.44020645  0.66364619  0.98659599     0.84100
O359        O  0.43640556  0.83464682  0.88724365    -0.78000
O360        O  0.30603827  0.71773258  0.93972120    -0.79500
O361        O  0.30022313  0.79541399  0.69996921    -0.79300
O362        O  0.39516555  0.83007850  0.72426789    -0.77900
Zn363      Zn  0.44275366  0.77913285  0.98059082     1.55700
O364        O  0.32895218  0.71867553  0.69884556    -0.79300
Cd365      Cd  0.35678225  0.82718483  0.67715747     1.59700
Cd366      Cd  0.36951144  0.82236186  0.91561876     1.59600
O367        O  0.34964252  0.90026071  0.65857873    -0.79300
O368        O  0.38317186  0.78700377  0.96813676    -1.89800
Cd369      Cd  0.35667211  0.72007929  0.97635380     1.59900
O370        O  0.33225198  0.88929848  0.92952127    -0.79300
O371        O  0.40063215  0.65797488  0.97827529    -0.77900
C372        C  0.47543586  0.82614767  0.90078613     0.84600
C373        C  0.43644256  0.83084719  0.72497545     0.84300
O374        O  0.45502120  0.70695181  0.98848673    -0.76900
C375        C  0.30609076  0.75186330  0.71612289     0.85100
O376        O  0.47981639  0.80402274  0.93496125    -0.77000
C377        C  0.32835962  0.91370126  0.96139238     0.85200
C378        C  0.29390775  0.74330646  0.90860030     0.85500
O379        O  0.31661131  0.77992772  0.89276653    -0.79400
N380        N  0.25330201  0.72886561  0.89208739    -0.01900
C381        C  0.24316138  0.72310018  0.85353804     0.00700
C382        C  0.20200390  0.70422229  0.85166955    -0.22200
C383        C  0.18568667  0.69822448  0.89034877    -0.22400
C384        C  0.21741384  0.71365379  0.91425787     0.00600
H385        H  0.18566162  0.69458911  0.82538800     0.14400
H386        H  0.15332856  0.68617313  0.89989479     0.14400
O387        O  0.06080822  0.70451674  0.68097042    -0.76900
C388        C  0.03542973  0.82774086  0.75642069     0.84100
O389        O  0.11592703  0.81047225  0.93103718    -0.78000
O390        O  0.17016630  0.88972039  0.71269312    -0.79500
O391        O  0.20748156  0.71635159  0.73949173    -0.79300
O392        O  0.11044371  0.65361364  0.71007227    -0.77900
Zn393      Zn  0.06995004  0.77560515  0.68345153     1.55700
O394        O  0.19277237  0.78725415  0.77051107    -0.79300
Cd395      Cd  0.15657032  0.71022334  0.70104469     1.59700
Cd396      Cd  0.15672320  0.80573281  0.97807260     1.59600
O397        O  0.18354721  0.69453351  0.97816442    -0.79300
O398        O  0.12909936  0.77932200  0.69489492    -1.89800
Cd399      Cd  0.13942135  0.82384776  0.73856021     1.59900
O400        O  0.21347609  0.76684737  0.96613647    -0.79300
O401        O  0.07410077  0.83913704  0.76615726    -0.77900
C402        C  0.07501415  0.82090239  0.93214096     0.84600
C403        C  0.07446417  0.66083856  0.69228300     0.84300
O404        O  0.03133866  0.80106239  0.72713038    -0.76900
C405        C  0.21774629  0.74878409  0.76354291     0.85100
O406        O  0.05227508  0.81361215  0.96462269    -0.77000
C407        C  0.20740336  0.72360678  0.95603893     0.85200
C408        C  0.18402214  0.90040311  0.67635666     0.85500
O409        O  0.17656135  0.87388479  0.98125157    -0.79400
N410        N  0.51552194  0.84548355  0.88016447    -0.01900
C411        C  0.52104322  0.86863303  0.84264102     0.00700
C412        C  0.06217029  0.88682912  0.83585036    -0.22200
C413        C  0.08516444  0.87104312  0.86825675    -0.22400
C414        C  0.05692161  0.84531979  0.89486682     0.00600
H415        H  0.07448895  0.90858553  0.80965648     0.14400
H416        H  0.11934819  0.87762073  0.87205669     0.14400
N417        N  0.26066589  0.74307654  0.78039486    -0.01900
C418        C  0.27255625  0.73160930  0.81873217     0.00700
C419        C  0.31734395  0.72391639  0.82057265    -0.22200
C420        C  0.33419996  0.73214398  0.78260544    -0.22400
C421        C  0.29912176  0.74333209  0.75892072     0.00600
H422        H  0.33600782  0.71050770  0.84600899     0.14400
H423        H  0.36833509  0.72857154  0.77289953     0.14400
N424        N  0.99526826  0.84901077  0.77533761    -0.01900
C425        C  0.98969128  0.87073464  0.81123252     0.00700
C426        C  0.44838115  0.89130190  0.81683388    -0.22200
C427        C  0.42554083  0.87883011  0.78539302    -0.22400
C428        C  0.45400972  0.85233604  0.76057721     0.00600
H429        H  0.43576166  0.91188423  0.84188543     0.14400
H430        H  0.39120303  0.88780751  0.78128230     0.14400
O431        O  0.27867080  0.28836733  0.78823592    -0.76900
C432        C  0.29403385  0.32947708  0.98573811     0.84100
O433        O  0.36335294  0.15211366  0.72284160    -0.78000
O434        O  0.42933822  0.29448089  0.98125304    -0.79500
O435        O  0.40454409  0.37810882  0.77549342    -0.79300
O436        O  0.32528550  0.31786496  0.82786057    -0.77900
Zn437      Zn  0.30980243  0.27313564  0.73418388     1.55700
O438        O  0.40928711  0.39359203  0.70848239    -0.79300
Cd439      Cd  0.37910410  0.30992323  0.78767938     1.59700
Cd440      Cd  0.40430166  0.21446146  0.72690977     1.59600
O441        O  0.42312695  0.26544541  0.82093609    -0.79300
O442        O  0.37031721  0.28106172  0.73374925    -1.89800
Cd443      Cd  0.38461480  0.32884249  0.68659153     1.59900
O444        O  0.44093789  0.20534392  0.77920649    -0.79300
O445        O  0.33307326  0.34408045  0.98191770    -0.77900
C446        C  0.32205943  0.15963250  0.72453666     0.84600
C447        C  0.28700424  0.30422455  0.82218724     0.84300
O448        O  0.28165245  0.30352334  0.68378055    -0.76900
C449        C  0.41589695  0.40515192  0.74433907     0.85100
O450        O  0.30603244  0.20301958  0.72894582    -0.77000
C451        C  0.44462817  0.22580019  0.81267664     0.85200
C452        C  0.44834596  0.25180017  0.97822994     0.85500
O453        O  0.44379549  0.21696833  0.67257970    -0.79400
N454        N  0.26301262  0.34793420  0.95628512    -0.01900
C455        C  0.26845100  0.34762267  0.91525891     0.00700
C456        C  0.23950101  0.38407151  0.89923652    -0.22200
C457        C  0.21010929  0.39671928  0.92962705    -0.22400
C458        C  0.22410914  0.37192806  0.96439083     0.00600
H459        H  0.23273800  0.39069993  0.86773356     0.14400
H460        H  0.17868438  0.41563673  0.92542973     0.14400
O461        O  0.18823026  0.20740481  0.72124567    -0.76900
C462        C  0.19255028  0.35504592  0.99726138     0.84100
O463        O  0.14455005  0.28927799  0.82818267    -0.78000
O464        O  0.07271073  0.39706898  0.72524841    -0.79500
O465        O  0.04999583  0.23555186  0.66829875    -0.79300
O466        O  0.13597503  0.15822236  0.70682692    -0.77900
Zn467      Zn  0.17471379  0.27583511  0.73217738     1.55700
O468        O  0.05790475  0.31749397  0.98751831    -0.79300
Cd469      Cd  0.08767932  0.21566833  0.71789600     1.59700
Cd470      Cd  0.09394956  0.29638908  0.78865858     1.59600
O471        O  0.04743221  0.18452920  0.76486459    -0.79300
O472        O  0.11349232  0.28096165  0.73330280    -1.89800
Cd473      Cd  0.10028441  0.33954847  0.69526233     1.59900
O474        O  0.05264227  0.24190142  0.80959960    -0.79300
O475        O  0.15265154  0.36894218  0.99530356    -0.77900
C476        C  0.18544723  0.28277909  0.82077356     0.84600
C477        C  0.17598142  0.16501007  0.71300630     0.84300
O478        O  0.20390808  0.32101288  0.68974956    -0.76900
C479        C  0.04190518  0.27609033  0.98062542     0.85100
O480        O  0.20048537  0.28030874  0.78507372    -0.77000
C481        C  0.03823085  0.20114818  0.79922453     0.85200
C482        C  0.05689314  0.40081267  0.76079080     0.85500
O483        O  0.06142633  0.36618582  0.78853067    -0.79400
N484        N  0.47928673  0.24635666  0.94462261    -0.01900
C485        C  0.46790278  0.24822294  0.90509941     0.00700
C486        C  0.99199461  0.28563416  0.88447767    -0.22200
C487        C  0.02342987  0.29930036  0.90912945    -0.22400
C488        C  0.01506033  0.27407473  0.94543947     0.00600
H489        H  0.99327706  0.29472825  0.85241640     0.14400
H490        H  0.05016436  0.32362056  0.90101201     0.14400
N491        N  0.25549476  0.29781072  0.85604380    -0.01900
C492        C  0.26435686  0.29860970  0.89607506     0.01500
C493        C  0.23404349  0.26855532  0.91757833    -0.22200
C494        C  0.20163705  0.25957063  0.89234778    -0.22400
C495        C  0.21513179  0.27830387  0.85480156     0.00600
H496        H  0.23015578  0.26315997  0.94995403     0.14400
H497        H  0.17059111  0.24319942  0.90096413     0.14400
N498        N  0.47274903  0.20057555  0.84177804    -0.01900
C499        C  0.47292760  0.20117082  0.88286689     0.00700
C500        C  0.00456303  0.16625992  0.89611521    -0.22200
C501        C  0.02811538  0.15112996  0.86273285    -0.22400
C502        C  0.00946894  0.17533800  0.82974493     0.00600
H503        H  0.01619996  0.16119804  0.92631090     0.14400
H504        H  0.06044639  0.13349798  0.86326015     0.14400
C505        C  0.25499771  0.00976223  0.67293281     0.81800
N506        N  0.29115687  0.99037253  0.65279770    -0.76500
C507        C  0.28916321  0.94538122  0.96969785     0.84300
N508        N  0.25239014  0.91963674  0.97630542    -0.76400
C509        C  0.21798776  0.93635390  0.99913818     0.84400
N510        N  0.21907552  0.98164220  0.68075059    -0.78200
C511        C  0.25418494  0.05954939  0.68882302     0.81800
N512        N  0.29194168  0.08064191  0.69970115    -0.76500
C513        C  0.28816724  0.12273434  0.72039791     0.84300
N514        N  0.24814049  0.14220546  0.72844554    -0.76400
C515        C  0.21181878  0.12670636  0.71335492     0.84400
N516        N  0.21426417  0.08429876  0.69359195    -0.78200
C517        C  0.49756900  0.55760674  0.03979361     0.81800
N518        N  0.96399379  0.58119548  0.01921626    -0.76500
C519        C  0.97250132  0.62271195  0.32834894     0.84300
N520        N  0.01347209  0.63871951  0.32521431    -0.76400
C521        C  0.54435802  0.62183005  0.35039565     0.84400
N522        N  0.53678259  0.58038040  0.04129749    -0.78200
C523        C  0.49152995  0.50909427  0.06215384     0.81800
N524        N  0.52713174  0.48436633  0.07795428    -0.76500
C525        C  0.52294287  0.43958359  0.09864833     0.84300
N526        N  0.48310231  0.42062935  0.10362248    -0.76400
C527        C  0.94860831  0.44129427  0.08426430     0.84400
N528        N  0.95270247  0.48556347  0.06252853    -0.78200
O529        O  0.96017456  0.81537294  0.02919624    -0.76900
C530        C  0.94020626  0.66364721  0.31992955     0.84100
O531        O  0.93640564  0.83464772  0.22057699    -0.78000
O532        O  0.80603836  0.71773345  0.27305456    -0.79500
O533        O  0.80022325  0.79541225  0.03330283    -0.79300
O534        O  0.89516540  0.83007713  0.05760186    -0.77900
Zn535      Zn  0.94275363  0.77913380  0.31392402     1.55700
O536        O  0.82895266  0.71867416  0.03217849    -0.79300
Cd537      Cd  0.85678217  0.82718384  0.01049139     1.59700
Cd538      Cd  0.86951134  0.82236265  0.24895177     1.59600
O539        O  0.84964211  0.90025980  0.99191318    -0.79300
O540        O  0.88317177  0.78700466  0.30146998    -1.89800
Cd541      Cd  0.85667202  0.72008036  0.30968724     1.59900
O542        O  0.83225163  0.88929944  0.26285410    -0.79300
O543        O  0.90063186  0.65797572  0.31160913    -0.77900
C544        C  0.97543588  0.82614855  0.23411943     0.84600
C545        C  0.93644233  0.83084643  0.05830909     0.84300
O546        O  0.95502111  0.70695289  0.32182021    -0.76900
C547        C  0.80609090  0.75186139  0.04945608     0.85100
O548        O  0.97981637  0.80402361  0.26829453    -0.77000
C549        C  0.82835942  0.91370233  0.29472517     0.85200
C550        C  0.79390784  0.74330688  0.24193349     0.85500
O551        O  0.81661161  0.77992777  0.22609943    -0.79400
N552        N  0.75330209  0.72886557  0.22542059    -0.01900
C553        C  0.74316154  0.72309910  0.18687127     0.00700
C554        C  0.70200417  0.70422105  0.18500286    -0.22200
C555        C  0.68568710  0.69822368  0.22368203    -0.22400
C556        C  0.71741409  0.71365356  0.24759118     0.00600
H557        H  0.68566212  0.69458678  0.15872084     0.14400
H558        H  0.65332883  0.68617184  0.23322821     0.14400
O559        O  0.56080777  0.70451666  0.01430374    -0.76900
C560        C  0.53542933  0.82774067  0.08975438     0.84100
O561        O  0.61592702  0.81047220  0.26436972    -0.78000
O562        O  0.67016652  0.88971932  0.04602767    -0.79500
O563        O  0.70748156  0.71635084  0.07282468    -0.79300
O564        O  0.61044361  0.65361363  0.04340499    -0.77900
Zn565      Zn  0.56994968  0.77560531  0.01678488     1.55700
O566        O  0.69277239  0.78725264  0.10384503    -0.79300
Cd567      Cd  0.65657002  0.71022347  0.03437770     1.59700
Cd568      Cd  0.65672347  0.80573323  0.31140508     1.59600
O569        O  0.68354774  0.69453391  0.31149797    -0.79300
O570        O  0.62909897  0.77932221  0.02822843    -1.89800
Cd571      Cd  0.63942120  0.82384674  0.07189437     1.59900
O572        O  0.71347653  0.76684784  0.29946931    -0.79300
O573        O  0.57410036  0.83913610  0.09949141    -0.77900
C574        C  0.57501423  0.82090289  0.26547388     0.84600
C575        C  0.57446390  0.66083852  0.02561603     0.84300
O576        O  0.53133842  0.80106286  0.06046363    -0.76900
C577        C  0.71774644  0.74878286  0.09687622     0.85100
O578        O  0.55227544  0.81361308  0.29795583    -0.77000
C579        C  0.70740366  0.72360711  0.28937213     0.85200
C580        C  0.68402173  0.90040303  0.00969118     0.85500
O581        O  0.67656127  0.87388544  0.31458352    -0.79400
N582        N  0.01552183  0.84548445  0.21349771    -0.01900
C583        C  0.02104286  0.86863389  0.17597431     0.00700
C584        C  0.56217025  0.88683015  0.16918345    -0.22200
C585        C  0.58516450  0.87104410  0.20158972    -0.22400
C586        C  0.55692171  0.84532069  0.22819990     0.00600
H587        H  0.57448917  0.90858602  0.14298914     0.14400
H588        H  0.61934839  0.87762182  0.20538950     0.14400
N589        N  0.76066614  0.74307480  0.11372812    -0.01900
C590        C  0.77255652  0.73160778  0.15206554     0.00700
C591        C  0.81734411  0.72391463  0.15390612    -0.22200
C592        C  0.83420002  0.73214151  0.11593874    -0.22400
C593        C  0.79912190  0.74332983  0.09225393     0.00600
H594        H  0.83600786  0.71050556  0.17934276     0.14400
H595        H  0.86833503  0.72856925  0.10623272     0.14400
N596        N  0.49526788  0.84901090  0.10867120    -0.01900
C597        C  0.48969096  0.87073522  0.14456596     0.00700
C598        C  0.94838079  0.89130245  0.15016704    -0.22200
C599        C  0.92554059  0.87883010  0.11872636    -0.22400
C600        C  0.95400938  0.85233559  0.09391078     0.00600
H601        H  0.93576087  0.91188492  0.17521872     0.14400
H602        H  0.89120276  0.88780721  0.11461560     0.14400
O603        O  0.77867131  0.28836703  0.12156909    -0.76900
C604        C  0.79403389  0.32947667  0.31907150     0.84100
O605        O  0.86335334  0.15211348  0.05617525    -0.78000
O606        O  0.92933787  0.29448150  0.31458694    -0.79500
O607        O  0.90454425  0.37810881  0.10882624    -0.79300
O608        O  0.82528579  0.31786553  0.16119357    -0.77900
Zn609      Zn  0.80980290  0.27313554  0.06751689     1.55700
O610        O  0.90928808  0.39359146  0.04181505    -0.79300
Cd611      Cd  0.87910430  0.30992347  0.12101228     1.59700
Cd612      Cd  0.90430215  0.21446126  0.06024307     1.59600
O613        O  0.92312673  0.26544588  0.15426926    -0.79300
O614        O  0.87031786  0.28106160  0.06708220    -1.89800
Cd615      Cd  0.88461545  0.32884202  0.01992427     1.59900
O616        O  0.94093820  0.20534420  0.11253997    -0.79300
O617        O  0.83307307  0.34408089  0.31525156    -0.77900
C618        C  0.82205981  0.15963242  0.05787003     0.84600
C619        C  0.78700469  0.30422459  0.15552034     0.84300
O620        O  0.78165279  0.30352359  0.01711379    -0.76900
C621        C  0.91589759  0.40515152  0.07767177     0.85100
O622        O  0.80603278  0.20301954  0.06227906    -0.77000
C623        C  0.94462798  0.22580052  0.14601015     0.85200
C624        C  0.94834561  0.25180075  0.31156369     0.85500
O625        O  0.94379606  0.21696774  0.00591306    -0.79400
N626        N  0.76301263  0.34793324  0.28961834    -0.01900
C627        C  0.76845135  0.34762203  0.24859214     0.00700
C628        C  0.73950125  0.38407067  0.23256973    -0.22200
C629        C  0.71010928  0.39671799  0.26296033    -0.22400
C630        C  0.72410920  0.37192693  0.29772405     0.00600
H631        H  0.73273800  0.39069898  0.20106706     0.14400
H632        H  0.67868477  0.41563484  0.25876310     0.14400
O633        O  0.68823060  0.20740461  0.05457923    -0.76900
C634        C  0.69255024  0.35504507  0.33059448     0.84100
O635        O  0.64455072  0.28927709  0.16151631    -0.78000
O636        O  0.57271070  0.39706862  0.05858187    -0.79500
O637        O  0.54999599  0.23555076  0.00163239    -0.79300
O638        O  0.63597523  0.15822167  0.04016159    -0.77900
Zn639      Zn  0.67471405  0.27583486  0.06551076     1.55700
O640        O  0.55790423  0.31749418  0.32085202    -0.79300
Cd641      Cd  0.58767931  0.21566776  0.05123002     1.59700
Cd642      Cd  0.59394984  0.29638887  0.12199238     1.59600
O643        O  0.54743202  0.18452914  0.09819864    -0.79300
O644        O  0.61349230  0.28096110  0.06663660    -1.89800
Cd645      Cd  0.60028446  0.33954785  0.02859590     1.59900
O646        O  0.55264218  0.24190165  0.14293365    -0.79300
O647        O  0.65265155  0.36894146  0.32863668    -0.77900
C648        C  0.68544784  0.28277816  0.15410695     0.84600
C649        C  0.67598169  0.16500964  0.04634052     0.84300
O650        O  0.70390852  0.32101262  0.02308294    -0.76900
C651        C  0.54190494  0.27609061  0.31395884     0.85100
O652        O  0.70048573  0.28030827  0.11840704    -0.77000
C653        C  0.53823078  0.20114828  0.13255861     0.85200
C654        C  0.55689334  0.40081250  0.09412426     0.85500
O655        O  0.56142674  0.36618578  0.12186423    -0.79400
N656        N  0.97928606  0.24635712  0.27795617    -0.01900
C657        C  0.96790193  0.24822325  0.23843299     0.00700
C658        C  0.49199402  0.28563465  0.21781137    -0.22200
C659        C  0.52342941  0.29930093  0.24246288    -0.22400
C660        C  0.51505992  0.27407538  0.27877297     0.00600
H661        H  0.49327632  0.29472825  0.18575003     0.14400
H662        H  0.55016402  0.32362141  0.23434497     0.14400
N663        N  0.75549542  0.29781012  0.18937689    -0.01900
C664        C  0.76435762  0.29860911  0.22940816     0.01500
C665        C  0.73404491  0.26855401  0.25091151    -0.22200
C666        C  0.70163856  0.25956905  0.22568093    -0.22400
C667        C  0.71513276  0.27830275  0.18813470     0.00600
H668        H  0.73015748  0.26315823  0.28328723     0.14400
H669        H  0.67059315  0.24319710  0.23429732     0.14400
N670        N  0.97274887  0.20057610  0.17511164    -0.01900
C671        C  0.97292700  0.20117114  0.21620048     0.00700
C672        C  0.50456217  0.16626014  0.22944929    -0.22200
C673        C  0.52811489  0.15113034  0.19606713    -0.22400
C674        C  0.50946867  0.17533823  0.16307901     0.00600
H675        H  0.51619876  0.16119808  0.25964537     0.14400
H676        H  0.56044615  0.13349791  0.19659464     0.14400
C677        C  0.75499778  0.00976173  0.00626745     0.81800
N678        N  0.79115678  0.99037208  0.98613217    -0.76500
C679        C  0.78916309  0.94538252  0.30303020     0.84300
N680        N  0.75238990  0.91963819  0.30963713    -0.76400
C681        C  0.71798740  0.93635524  0.33246991     0.84400
N682        N  0.71907553  0.98164180  0.01408525    -0.78200
C683        C  0.75418500  0.05954886  0.02215747     0.81800
N684        N  0.79194183  0.08064151  0.03303529    -0.76500
C685        C  0.78816754  0.12273408  0.05373188     0.84300
N686        N  0.74814080  0.14220509  0.06177972    -0.76400
C687        C  0.71181893  0.12670582  0.04668933     0.84400
N688        N  0.71426423  0.08429818  0.02692641    -0.78200
C689        C  0.49756890  0.55760753  0.37312726     0.81800
N690        N  0.96399339  0.58119663  0.35255023    -0.76500
C691        C  0.97250165  0.62271130  0.66168226     0.84300
N692        N  0.01347245  0.63871875  0.65854779    -0.76400
C693        C  0.54435811  0.62182929  0.68372929     0.84400
N694        N  0.53678259  0.58038107  0.37463108    -0.78200
C695        C  0.49153008  0.50909480  0.39548732     0.81800
N696        N  0.52713201  0.48436672  0.41128754    -0.76500
C697        C  0.52294307  0.43958383  0.43198147     0.84300
N698        N  0.48310251  0.42062960  0.43695570    -0.76400
C699        C  0.94860839  0.44129464  0.41759783     0.84400
N700        N  0.95270242  0.48556413  0.39586235    -0.78200
O701        O  0.96017468  0.81537364  0.36252963    -0.76900
C702        C  0.94020648  0.66364656  0.65326292     0.84100
O703        O  0.93640585  0.83464641  0.55391008    -0.78000
O704        O  0.80603820  0.71773241  0.60638794    -0.79500
O705        O  0.80022333  0.79541418  0.36663671    -0.79300
O706        O  0.89516549  0.83007976  0.39093468    -0.77900
Zn707      Zn  0.94275376  0.77913315  0.64725722     1.55700
O708        O  0.82895234  0.71867590  0.36551195    -0.79300
Cd709      Cd  0.85678215  0.82718553  0.34382443     1.59700
Cd710      Cd  0.86951147  0.82236169  0.58228490     1.59600
O711        O  0.84964222  0.90026138  0.32524597    -0.79300
O712        O  0.88317169  0.78700400  0.63480296    -1.89800
Cd713      Cd  0.85667208  0.72007951  0.64302058     1.59900
O714        O  0.83225212  0.88929848  0.59618728    -0.79300
O715        O  0.90063210  0.65797502  0.64494241    -0.77900
C716        C  0.97543613  0.82614739  0.56745259     0.84600
C717        C  0.93644250  0.83084803  0.39164218     0.84300
O718        O  0.95502129  0.70695229  0.65515337    -0.76900
C719        C  0.80609084  0.75186322  0.38278975     0.85100
O720        O  0.97981658  0.80402262  0.60162770    -0.77000
C721        C  0.82835970  0.91370158  0.62805823     0.85200
C722        C  0.79390757  0.74330603  0.57526698     0.85500
O723        O  0.81661132  0.77992698  0.55943280    -0.79400
N724        N  0.75330183  0.72886475  0.55875425    -0.01900
C725        C  0.74316131  0.72309890  0.52020494     0.00700
C726        C  0.70200393  0.70422098  0.51833644    -0.22200
C727        C  0.68568674  0.69822315  0.55701564    -0.22400
C728        C  0.71741377  0.71365261  0.58092478     0.00600
H729        H  0.68566215  0.69458749  0.49205453     0.14400
H730        H  0.65332819  0.68617157  0.56656184     0.14400
O731        O  0.56080812  0.70451765  0.34763674    -0.76900
C732        C  0.53542993  0.82774154  0.42308713     0.84100
O733        O  0.61592708  0.81047065  0.59770348    -0.78000
O734        O  0.67016649  0.88972042  0.37935989    -0.79500
O735        O  0.70748137  0.71635145  0.40615829    -0.79300
O736        O  0.61044360  0.65361447  0.37673853    -0.77900
Zn737      Zn  0.56995018  0.77560606  0.35011779     1.55700
O738        O  0.69277260  0.78725386  0.43717784    -0.79300
Cd739      Cd  0.65657028  0.71022406  0.36771108     1.59700
Cd740      Cd  0.65672352  0.80573226  0.64473875     1.59600
O741        O  0.68354755  0.69453287  0.64483142    -0.79300
O742        O  0.62909941  0.77932286  0.36156132    -1.89800
Cd743      Cd  0.63942156  0.82384790  0.40522688     1.59900
O744        O  0.71347641  0.76684654  0.63280301    -0.79300
O745        O  0.57410092  0.83913717  0.43282401    -0.77900
C746        C  0.57501430  0.82090139  0.59880742     0.84600
C747        C  0.57446398  0.66083945  0.35894943     0.84300
O748        O  0.53133887  0.80106350  0.39379657    -0.76900
C749        C  0.71774635  0.74878373  0.43020958     0.85100
O750        O  0.55227537  0.81361191  0.63128936    -0.77000
C751        C  0.70740358  0.72360594  0.62270570     0.85200
C752        C  0.68402174  0.90040375  0.34302333     0.85500
O753        O  0.67656193  0.87388435  0.64791706    -0.79400
N754        N  0.01552223  0.84548329  0.54683097    -0.01900
C755        C  0.02104363  0.86863276  0.50930757     0.00700
C756        C  0.56217081  0.88682881  0.50251698    -0.22200
C757        C  0.58516480  0.87104245  0.53492332    -0.22400
C758        C  0.55692179  0.84531887  0.56153324     0.00600
H759        H  0.57448992  0.90858571  0.47632305     0.14400
H760        H  0.61934821  0.87761941  0.53872317     0.14400
N761        N  0.76066594  0.74307577  0.44706167    -0.01900
C762        C  0.77255624  0.73160805  0.48539908     0.00700
C763        C  0.81734382  0.72391478  0.48723956    -0.22200
C764        C  0.83419993  0.73214254  0.44927236    -0.22400
C765        C  0.79912184  0.74333154  0.42558759     0.00600
H766        H  0.83600752  0.71050526  0.51267629     0.14400
H767        H  0.86833504  0.72856996  0.43956633     0.14400
N768        N  0.49526862  0.84901146  0.44200416    -0.01900
C769        C  0.48969165  0.87073486  0.47789928     0.00700
C770        C  0.94838153  0.89130254  0.48350068    -0.22200
C771        C  0.92554120  0.87883093  0.45205988    -0.22400
C772        C  0.95400986  0.85233676  0.42724391     0.00600
H773        H  0.93576179  0.91188449  0.50855258     0.14400
H774        H  0.89120343  0.88780879  0.44794908     0.14400
O775        O  0.77867111  0.28836744  0.45490260    -0.76900
C776        C  0.79403371  0.32947701  0.65240482     0.84100
O777        O  0.86335307  0.15211334  0.38950923    -0.78000
O778        O  0.92933791  0.29448177  0.64792025    -0.79500
O779        O  0.90454442  0.37810920  0.44215990    -0.79300
O780        O  0.82528570  0.31786551  0.49452715    -0.77900
Zn781      Zn  0.80980265  0.27313540  0.40085054     1.55700
O782        O  0.90928782  0.39359207  0.37514880    -0.79300
Cd783      Cd  0.87910427  0.30992369  0.45434588     1.59700
Cd784      Cd  0.90430178  0.21446131  0.39357670     1.59600
O785        O  0.92312677  0.26544587  0.48760274    -0.79300
O786        O  0.87031762  0.28106164  0.40041596    -1.89800
Cd787      Cd  0.88461507  0.32884250  0.35325817     1.59900
O788        O  0.94093806  0.20534425  0.44587334    -0.79300
O789        O  0.83307299  0.34408096  0.64858481    -0.77900
C790        C  0.82205957  0.15963212  0.39120432     0.84600
C791        C  0.78700450  0.30422492  0.48885389     0.84300
O792        O  0.78165280  0.30352257  0.35044707    -0.76900
C793        C  0.91589742  0.40515216  0.41100547     0.85100
O794        O  0.80603265  0.20301923  0.39561319    -0.77000
C795        C  0.94462820  0.22580076  0.47934338     0.85200
C796        C  0.94834554  0.25180104  0.64489671     0.85500
O797        O  0.94379532  0.21696798  0.33924653    -0.79400
N798        N  0.76301248  0.34793416  0.62295182    -0.01900
C799        C  0.76845104  0.34762286  0.58192562     0.00700
C800        C  0.73950084  0.38407154  0.56590320    -0.22200
C801        C  0.71010899  0.39671909  0.59629368    -0.22400
C802        C  0.72410897  0.37192809  0.63105748     0.00600
H803        H  0.73273770  0.39069994  0.53440017     0.14400
H804        H  0.67868415  0.41563705  0.59209666     0.14400
O805        O  0.68823058  0.20740467  0.38791338    -0.76900
C806        C  0.69255006  0.35504596  0.66392797     0.84100
O807        O  0.64455034  0.28927741  0.49484969    -0.78000
O808        O  0.57271137  0.39706908  0.39191514    -0.79500
O809        O  0.54999614  0.23555106  0.33496575    -0.79300
O810        O  0.63597532  0.15822207  0.37349507    -0.77900
Zn811      Zn  0.67471396  0.27583497  0.39884440     1.55700
O812        O  0.55790435  0.31749487  0.65418517    -0.79300
Cd813      Cd  0.58767927  0.21566792  0.38456331     1.59700
Cd814      Cd  0.59394960  0.29638884  0.45532561     1.59600
O815        O  0.54743178  0.18452924  0.43153192    -0.79300
O816        O  0.61349242  0.28096125  0.39996975    -1.89800
Cd817      Cd  0.60028442  0.33954785  0.36192925     1.59900
O818        O  0.55264214  0.24190148  0.47626682    -0.79300
O819        O  0.65265131  0.36894234  0.66197022    -0.77900
C820        C  0.68544754  0.28277888  0.48744044     0.84600
C821        C  0.67598166  0.16500979  0.37967455     0.84300
O822        O  0.70390849  0.32101223  0.35641638    -0.76900
C823        C  0.54190471  0.27609149  0.64729197     0.85100
O824        O  0.70048565  0.28030902  0.45174053    -0.77000
C825        C  0.53823061  0.20114825  0.46589186     0.85200
C826        C  0.55689351  0.40081266  0.42745740     0.85500
O827        O  0.56142654  0.36618573  0.45519728    -0.79400
N828        N  0.97928622  0.24635771  0.61128934    -0.01900
C829        C  0.96790224  0.24822368  0.57176617     0.00700
C830        C  0.49199397  0.28563521  0.55114440    -0.22200
C831        C  0.52342910  0.29930172  0.57579604    -0.22400
C832        C  0.51505966  0.27407622  0.61210613     0.00600
H833        H  0.49327666  0.29472858  0.51908300     0.14400
H834        H  0.55016355  0.32362240  0.56767848     0.14400
N835        N  0.75549512  0.29781077  0.52271049    -0.01900
C836        C  0.76435731  0.29860988  0.56274184     0.01500
C837        C  0.73404468  0.26855497  0.58424520    -0.22200
C838        C  0.70163831  0.25957013  0.55901465    -0.22400
C839        C  0.71513236  0.27830386  0.52146835     0.00600
H840        H  0.73015717  0.26315907  0.61662129     0.14400
H841        H  0.67059278  0.24319900  0.56763092     0.14400
N842        N  0.97274876  0.20057611  0.50844496    -0.01900
C843        C  0.97292710  0.20117147  0.54953377     0.00700
C844        C  0.50456238  0.16626059  0.56278257    -0.22200
C845        C  0.52811498  0.15113044  0.52940038    -0.22400
C846        C  0.50946859  0.17533826  0.49641231     0.00600
H847        H  0.51619918  0.16119898  0.59297860     0.14400
H848        H  0.56044615  0.13349792  0.52992772     0.14400
C849        C  0.75499761  0.00976247  0.33960040     0.81800
N850        N  0.79115668  0.99037279  0.31946519    -0.76500
C851        C  0.78916336  0.94538195  0.63636338     0.84300
N852        N  0.75239019  0.91963761  0.64297053    -0.76400
C853        C  0.71798772  0.93635459  0.66580329     0.84400
N854        N  0.71907529  0.98164268  0.34741782    -0.78200
C855        C  0.75418496  0.05954924  0.35549113     0.81800
N856        N  0.79194178  0.08064158  0.36636928    -0.76500
C857        C  0.78816735  0.12273378  0.38706623     0.84300
N858        N  0.74814052  0.14220459  0.39511432    -0.76400
C859        C  0.71181877  0.12670583  0.38002346     0.84400
N860        N  0.71426414  0.08429853  0.36026023    -0.78200
C861        C  0.49756881  0.55760701  0.70646085     0.81800
N862        N  0.96399352  0.58119603  0.68588352    -0.76500
C863        C  0.97250176  0.62271088  0.99501502     0.84300
N864        N  0.01347252  0.63871849  0.99188042    -0.76400
C865        C  0.54435814  0.62182922  0.01706196     0.84400
N866        N  0.53678246  0.58038051  0.70796479    -0.78200
C867        C  0.49152971  0.50909455  0.72882108     0.81800
N868        N  0.52713153  0.48436640  0.74462139    -0.76500
C869        C  0.52294261  0.43958349  0.76531516     0.84300
N870        N  0.48310200  0.42062939  0.77028957    -0.76400
C871        C  0.94860794  0.44129453  0.75093141     0.84400
N872        N  0.95270205  0.48556395  0.72919588    -0.78200
O873        O  0.96017480  0.81537324  0.69586274    -0.76900
C874        C  0.94020658  0.66364619  0.98659567     0.84100
O875        O  0.93640554  0.83464686  0.88724363    -0.78000
O876        O  0.80603818  0.71773268  0.93972102    -0.79500
O877        O  0.80022320  0.79541374  0.69996929    -0.79300
O878        O  0.89516561  0.83007844  0.72426780    -0.77900
Zn879      Zn  0.94275371  0.77913280  0.98059080     1.55700
O880        O  0.82895240  0.71867527  0.69884540    -0.79300
Cd881      Cd  0.85678231  0.82718475  0.67715750     1.59700
Cd882      Cd  0.86951140  0.82236188  0.91561876     1.59600
O883        O  0.84964243  0.90026070  0.65857899    -0.79300
O884        O  0.88317178  0.78700362  0.96813674    -1.89800
Cd885      Cd  0.85667219  0.72007925  0.97635362     1.59900
O886        O  0.83225196  0.88929856  0.92952137    -0.79300
O887        O  0.90063225  0.65797485  0.97827496    -0.77900
C888        C  0.97543583  0.82614770  0.90078611     0.84600
C889        C  0.93644253  0.83084717  0.72497535     0.84300
O890        O  0.95502129  0.70695184  0.98848676    -0.76900
C891        C  0.80609085  0.75186295  0.71612280     0.85100
O892        O  0.97981635  0.80402273  0.93496122    -0.77000
C893        C  0.82835947  0.91370114  0.96139252     0.85200
C894        C  0.79390761  0.74330650  0.90860017     0.85500
O895        O  0.81661130  0.77992761  0.89276647    -0.79400
N896        N  0.75330186  0.72886562  0.89208726    -0.01900
C897        C  0.74316135  0.72310004  0.85353787     0.00700
C898        C  0.70200391  0.70422231  0.85166946    -0.22200
C899        C  0.68568658  0.69822455  0.89034860    -0.22400
C900        C  0.71741371  0.71365382  0.91425775     0.00600
H901        H  0.68566148  0.69458917  0.82538753     0.14400
H902        H  0.65332845  0.68617285  0.89989470     0.14400
O903        O  0.56080804  0.70451676  0.68097067    -0.76900
C904        C  0.53542968  0.82774099  0.75642061     0.84100
O905        O  0.61592694  0.81047202  0.93103697    -0.78000
O906        O  0.67016638  0.88972035  0.71269299    -0.79500
O907        O  0.70748160  0.71635160  0.73949172    -0.79300
O908        O  0.61044372  0.65361359  0.71007236    -0.77900
Zn909      Zn  0.56995002  0.77560518  0.68345156     1.55700
O910        O  0.69277260  0.78725412  0.77051113    -0.79300
Cd911      Cd  0.65657029  0.71022336  0.70104468     1.59700
Cd912      Cd  0.65672312  0.80573290  0.97807246     1.59600
O913        O  0.68354722  0.69453381  0.97816443    -0.79300
O914        O  0.62909937  0.77932203  0.69489495    -1.89800
Cd915      Cd  0.63942142  0.82384778  0.73856020     1.59900
O916        O  0.71347611  0.76684743  0.96613635    -0.79300
O917        O  0.57410065  0.83913703  0.76615732    -0.77900
C918        C  0.57501409  0.82090223  0.93214082     0.84600
C919        C  0.57446408  0.66083857  0.69228317     0.84300
O920        O  0.53133869  0.80106255  0.72713026    -0.76900
C921        C  0.71774647  0.74878407  0.76354288     0.85100
O922        O  0.55227514  0.81361229  0.96462265    -0.77000
C923        C  0.70740335  0.72360690  0.95603884     0.85200
C924        C  0.68402196  0.90040326  0.67635655     0.85500
O925        O  0.67656109  0.87388513  0.98125123    -0.79400
N926        N  0.01552198  0.84548352  0.88016448    -0.01900
C927        C  0.02104317  0.86863297  0.84264110     0.00700
C928        C  0.56217026  0.88682926  0.83585016    -0.22200
C929        C  0.58516432  0.87104320  0.86825658    -0.22400
C930        C  0.55692148  0.84531979  0.89486675     0.00600
H931        H  0.57448917  0.90858568  0.80965596     0.14400
H932        H  0.61934765  0.87762111  0.87205676     0.14400
N933        N  0.76066605  0.74307638  0.78039482    -0.01900
C934        C  0.77255636  0.73160914  0.81873218     0.00700
C935        C  0.81734393  0.72391615  0.82057272    -0.22200
C936        C  0.83419987  0.73214357  0.78260549    -0.22400
C937        C  0.79912182  0.74333179  0.75892068     0.00600
H938        H  0.83600770  0.71050678  0.84600917     0.14400
H939        H  0.86833491  0.72857136  0.77289957     0.14400
N940        N  0.49526834  0.84901087  0.77533762    -0.01900
C941        C  0.48969127  0.87073464  0.81123257     0.00700
C942        C  0.94838119  0.89130186  0.81683384    -0.22200
C943        C  0.92554086  0.87883009  0.78539295    -0.22400
C944        C  0.95400966  0.85233598  0.76057713     0.00600
H945        H  0.93576172  0.91188410  0.84188543     0.14400
H946        H  0.89120304  0.88780745  0.78128224     0.14400
O947        O  0.77867100  0.28836763  0.78823594    -0.76900
C948        C  0.79403403  0.32947707  0.98573795     0.84100
O949        O  0.86335302  0.15211373  0.72284175    -0.78000
O950        O  0.92933834  0.29448093  0.98125305    -0.79500
O951        O  0.90454414  0.37810877  0.77549321    -0.79300
O952        O  0.82528566  0.31786490  0.82786066    -0.77900
Zn953      Zn  0.80980258  0.27313568  0.73418387     1.55700
O954        O  0.90928745  0.39359211  0.70848218    -0.79300
Cd955      Cd  0.87910431  0.30992324  0.78767932     1.59700
Cd956      Cd  0.90430181  0.21446146  0.72690974     1.59600
O957        O  0.92312705  0.26544542  0.82093587    -0.79300
O958        O  0.87031759  0.28106171  0.73374924    -1.89800
Cd959      Cd  0.88461503  0.32884254  0.68659150     1.59900
O960        O  0.94093810  0.20534399  0.77920637    -0.79300
O961        O  0.83307348  0.34408055  0.98191768    -0.77900
C962        C  0.82205950  0.15963252  0.72453682     0.84600
C963        C  0.78700435  0.30422483  0.82218730     0.84300
O964        O  0.78165245  0.30352335  0.68378059    -0.76900
C965        C  0.91589698  0.40515203  0.74433890     0.85100
O966        O  0.80603242  0.20301956  0.72894606    -0.77000
C967        C  0.94462832  0.22580023  0.81267647     0.85200
C968        C  0.94834610  0.25180017  0.97822996     0.85500
O969        O  0.94379562  0.21696835  0.67257959    -0.79400
N970        N  0.76301262  0.34793423  0.95628508    -0.01900
C971        C  0.76845107  0.34762293  0.91525889     0.00700
C972        C  0.73950091  0.38407169  0.89923655    -0.22200
C973        C  0.71010911  0.39671924  0.92962711    -0.22400
C974        C  0.72410908  0.37192801  0.96439086     0.00600
H975        H  0.73273776  0.39070001  0.86773359     0.14400
H976        H  0.67868410  0.41563639  0.92542980     0.14400
O977        O  0.68823030  0.20740478  0.72124585    -0.76900
C978        C  0.69255026  0.35504576  0.99726132     0.84100
O979        O  0.64455033  0.28927766  0.82818283    -0.78000
O980        O  0.57271092  0.39706912  0.72524871    -0.79500
O981        O  0.54999588  0.23555183  0.66829871    -0.79300
O982        O  0.63597502  0.15822235  0.70682720    -0.77900
Zn983      Zn  0.67471379  0.27583504  0.73217745     1.55700
O984        O  0.55790464  0.31749382  0.98751851    -0.79300
Cd985      Cd  0.58767928  0.21566820  0.71789605     1.59700
Cd986      Cd  0.59394950  0.29638879  0.78865878     1.59600
O987        O  0.54743199  0.18452903  0.76486462    -0.79300
O988        O  0.61349223  0.28096148  0.73330306    -1.89800
Cd989      Cd  0.60028435  0.33954840  0.69526255     1.59900
O990        O  0.55264224  0.24190122  0.80959980    -0.79300
O991        O  0.65265150  0.36894195  0.99530351    -0.77900
C992        C  0.68544743  0.28277897  0.82077359     0.84600
C993        C  0.67598140  0.16500998  0.71300670     0.84300
O994        O  0.70390824  0.32101272  0.68974956    -0.76900
C995        C  0.54190518  0.27609030  0.98062536     0.85100
O996        O  0.70048539  0.28030888  0.78507368    -0.77000
C997        C  0.53823084  0.20114790  0.79922469     0.85200
C998        C  0.55689311  0.40081247  0.76079105     0.85500
O999        O  0.56142605  0.36618542  0.78853086    -0.79400
N1000       N  0.97928668  0.24635638  0.94462257    -0.01900
C1001       C  0.96790265  0.24822265  0.90509933     0.00700
C1002       C  0.49199493  0.28563429  0.88447767    -0.22200
C1003       C  0.52343005  0.29930061  0.90912940    -0.22400
C1004       C  0.51506052  0.27407501  0.94543941     0.00600
H1005       H  0.49327692  0.29472815  0.85241633     0.14400
H1006       H  0.55016508  0.32362124  0.90101169     0.14400
N1007       N  0.75549488  0.29781080  0.85604384    -0.01900
C1008       C  0.76435699  0.29860986  0.89607520     0.01500
C1009       C  0.73404381  0.26855541  0.91757855    -0.22200
C1010       C  0.70163748  0.25957064  0.89234791    -0.22400
C1011       C  0.71513200  0.27830405  0.85480160     0.00600
H1012       H  0.73015607  0.26315995  0.94995467     0.14400
H1013       H  0.67059163  0.24319961  0.90096408     0.14400
N1014       N  0.97274921  0.20057566  0.84177786    -0.01900
C1015       C  0.97292764  0.20117071  0.88286660     0.00700
C1016       C  0.50456295  0.16625997  0.89611548    -0.22200
C1017       C  0.52811522  0.15112982  0.86273310    -0.22400
C1018       C  0.50946869  0.17533772  0.82974509     0.00600
H1019       H  0.51620002  0.16119809  0.92631155     0.14400
H1020       H  0.56044601  0.13349731  0.86326011     0.14400
C1021       C  0.75499776  0.00976213  0.67293318     0.81800
N1022       N  0.79115694  0.99037247  0.65279805    -0.76500
C1023       C  0.78916324  0.94538132  0.96969790     0.84300
N1024       N  0.75239018  0.91963684  0.97630527    -0.76400
C1025       C  0.71798775  0.93635409  0.99913794     0.84400
N1026       N  0.71907541  0.98164228  0.68075072    -0.78200
C1027       C  0.75418502  0.05954926  0.68882343     0.81800
N1028       N  0.79194178  0.08064171  0.69970170    -0.76500
C1029       C  0.78816734  0.12273422  0.72039837     0.84300
N1030       N  0.74814051  0.14220511  0.72844618    -0.76400
C1031       C  0.71181877  0.12670612  0.71335540     0.84400
N1032       N  0.71426416  0.08429854  0.69359237    -0.78200
loop_ 
_geom_bond_atom_site_label_1 
_geom_bond_atom_site_label_2 
_geom_bond_distance 
_geom_bond_site_symmetry_2 
_ccdc_geom_bond_type 
C1            N6   1.374   1_655  A
C1          N518   1.375       .  A
C1            C7   1.477       .  S
N2          C517   1.375       .  A
N2          C347   1.363   1_554  A
C3            N4   1.340       .  A
C3          N174   1.363       .  A
C3           C14   1.476       .  S
N4          C521   1.341       .  A
C5          N520   1.341       .  A
C5          N178   1.357       .  A
C5          C231   1.475       .  S
N6          C349   1.357       .  A
C7            N8   1.365   1_655  A
C7          N528   1.368       .  A
N8            C9   1.359       .  A
C9           N10   1.340   1_455  A
C9          C138   1.456       .  S
N10         C527   1.347       .  A
C11          N12   1.363       .  A
C11         N526   1.347       .  A
C11         C105   1.458       .  S
N12         C523   1.368       .  A
O13          C29   1.270       .  A
O13        Zn363   2.049   1_554  S
C14          O30   1.275       .  A
C14          O27   1.273       .  A
O15          C28   1.304       .  A
O15         Cd22   2.245       .  S
O16          C34   1.271       .  A
O16         Cd25   2.023       .  S
O17          C31   1.270       .  A
O17         Cd21   2.055       .  S
O18          C29   1.266       .  A
O18         Cd21   2.013       .  S
Zn19         O30   1.971       .  S
Zn19         O32   1.956       .  S
Zn19        O185   2.049       .  S
Zn19         O24   1.891       .  S
O20          C31   1.268       .  A
O20        Cd369   2.011   1_554  S
Cd21         O23   2.034   1_554  S
Cd21        O368   1.964   1_554  S
Cd22         O26   2.163       .  S
Cd22         O35   2.210       .  S
Cd22         O24   1.994       .  S
O23         C377   1.260       .  A
O24         Cd25   2.005       .  S
O24        Cd193   1.964       .  S
Cd25         O27   2.108       .  S
Cd25        O192   2.011       .  S
O26          C33   1.286       .  A
C28          O32   1.263       .  A
C28          N66   1.476       .  S
C29          C84   1.486       .  S
C31          C77   1.440       .  S
C33         C163   1.473       .  S
C33         O195   1.260       .  A
C34          O35   1.300       .  A
C34          N36   1.459       .  S
N36          C40   1.358       .  A
N36          C37   1.357       .  A
C37          C74   1.449       .  S
C37          C38   1.383       .  A
C38          C39   1.365       .  A
C38          H41   1.080       .  S
C39          C40   1.378       .  A
C39          H42   1.082       .  S
C40          C63   1.454       .  S
O43          C59   1.274       .  A
O43         Zn49   1.956       .  S
C44          O60   1.265       .  A
C44          O57   1.296       .  A
C44          N80   1.471   1_455  S
O45          C58   1.273       .  A
O45         Cd52   2.045       .  S
O46          C64   1.285       .  A
O46         Cd55   2.154       .  S
O47          C61   1.282       .  A
O47         Cd51   2.082       .  S
O48          C59   1.278       .  A
O48         Cd51   2.117       .  S
Zn49         O60   1.977       .  S
Zn49        O406   2.046   1_554  S
Zn49         O54   1.876       .  S
O50          C61   1.292       .  A
O50         Cd55   2.163       .  S
Cd51        O397   2.078   1_554  S
Cd51         O54   2.017       .  S
Cd52         O56   2.033       .  S
Cd52         O65   1.969       .  S
Cd52        O226   1.946       .  S
O53          C63   1.270       .  A
O53        Cd223   2.078       .  S
O54         Cd55   1.991       .  S
O54        Cd396   1.946   1_554  S
Cd55         O57   2.200       .  S
O56          C63   1.258       .  A
C58          C70   1.489       .  S
C58          O62   1.270       .  A
C59         C349   1.475       .  S
C61          N73   1.452       .  S
O62        Zn221   2.046       .  S
C64         C509   1.465   1_554  S
C64         O409   1.259   1_554  A
O65         C236   1.259       .  A
N66          C67   1.369       .  A
N66         C586   1.380       .  A
C67         C597   1.450       .  S
C67         C584   1.373       .  A
C68          C69   1.354       .  A
C68         C583   1.373       .  A
C68          H71   1.082       .  S
C69          C70   1.383       .  A
C69          H72   1.083       .  S
C70         N582   1.380       .  A
N73          C77   1.351       .  A
N73          C74   1.359       .  A
C74          C75   1.383       .  A
C75          C76   1.354       .  A
C75          H78   1.080       .  S
C76          C77   1.375       .  A
C76          H79   1.083       .  S
N80          C81   1.369       .  A
N80         C600   1.375       .  A
C81         C583   1.450   1_655  S
C81         C598   1.372       .  A
C82          C83   1.354       .  A
C82         C597   1.372       .  A
C82          H85   1.082       .  S
C83          C84   1.386       .  A
C83          H86   1.083       .  S
C84         N596   1.375       .  A
O87         C103   1.277       .  A
O87         Zn93   2.060       .  S
C88         O101   1.271       .  A
C88         O276   1.272       .  A
C88         N110   1.450       .  S
O89         C102   1.272       .  A
O89         Cd96   2.150       .  S
O90         C108   1.278       .  A
O90        Cd271   2.074       .  S
O91         C105   1.273       .  A
O91         Cd95   2.034       .  S
O92         C103   1.268       .  A
O92         Cd95   2.091       .  S
Zn93        O104   2.035       .  S
Zn93        O106   1.919       .  S
Zn93         O98   1.873       .  S
O94         C105   1.283       .  A
O94         Cd99   2.115       .  S
Cd95         O97   2.080       .  S
Cd95         O98   2.040       .  S
Cd96        O100   2.114       .  S
Cd96        O109   2.133       .  S
Cd96         O98   2.062       .  S
O97         C107   1.273       .  A
O98         Cd99   2.011       .  S
Cd99        O434   2.074   1_554  S
Cd99        O445   2.082   1_554  S
O100        C107   1.289       .  A
O101       Cd271   2.082       .  S
C102        C169   1.482       .  S
C102        O106   1.266       .  A
C103        N147   1.458       .  S
O104        C432   1.272   1_554  A
C107        N154   1.447       .  S
C108        O281   1.281       .  A
C108        N140   1.447       .  S
O109        C452   1.281   1_554  A
N110        C114   1.359       .  A
N110        C111   1.373       .  A
C111        C148   1.518       .  S
C111        C112   1.395       .  A
C112        C113   1.376       .  A
C112        H115   1.083       .  S
C113        C114   1.378       .  A
C113        H116   1.082       .  S
C114        C118   1.489       .  S
O117        C133   1.268       .  A
O117       Zn123   1.930       .  S
C118        O131   1.268       .  A
C118        O306   1.267       .  A
O119        C132   1.273       .  A
O119       Cd126   2.076       .  S
O120        C138   1.270       .  A
O120       Cd129   2.037       .  S
O121        C479   1.282   1_554  A
O121       Cd125   2.090       .  S
O122        C133   1.274       .  A
O122       Cd125   2.139       .  S
Zn123       O134   2.008       .  S
Zn123       O136   1.979       .  S
Zn123       O128   1.874       .  S
O124        C135   1.275       .  A
O124       Cd301   2.060       .  S
Cd125       O127   2.101       .  S
Cd125       O128   2.062       .  S
Cd126       O130   2.043       .  S
Cd126       O139   2.096       .  S
Cd126       O128   1.982       .  S
O127        C137   1.274       .  A
O128       Cd129   2.002       .  S
Cd129       O468   2.060   1_554  S
Cd129       O475   2.063   1_554  S
O130        C137   1.274       .  A
O131       Cd301   2.063       .  S
C132        C151   1.483       .  S
C132        O136   1.263       .  A
C133        C171   1.478       .  S
O134        C462   1.267   1_554  A
C135        C144   1.469       .  S
C135        O293   1.282       .  A
C137        C158   1.473       .  S
C138        O139   1.280       .  A
N140        C141   1.377       .  A
N140        C660   1.352       .  A
C141        C155   1.511       .  S
C141        C658   1.399       .  A
C142        C143   1.370   1_655  A
C142        C657   1.399       .  A
C142        H145   1.081       .  S
C143        C144   1.369       .  A
C143        H146   1.082       .  S
C144        N656   1.352   1_455  A
N147        C151   1.365       .  A
N147        C148   1.377       .  A
C148        C149   1.398       .  A
C149        C150   1.369       .  A
C149        H152   1.083       .  S
C150        C151   1.372       .  A
C150        H153   1.083       .  S
N154        C155   1.373       .  A
N154        C674   1.351       .  A
C155        C672   1.391       .  A
C156        C157   1.376       .  A
C156        C671   1.391   1_455  A
C156        H159   1.083       .  S
C157        C158   1.378       .  A
C157        H160   1.082       .  S
C158        N670   1.351   1_455  A
C161        N162   1.373   1_544  A
C161        N166   1.366   1_545  A
C161        C167   1.474       .  S
N162        C507   1.368       .  A
C163        N164   1.348       .  A
C163        N334   1.368       .  A
N164        C165   1.353       .  A
C165        N338   1.351       .  A
C165        C236   1.465       .  S
N166        C509   1.351   1_554  A
C167        N168   1.381       .  A
C167        N172   1.378       .  A
N168        C169   1.365       .  A
C169        N170   1.338       .  A
N170        C171   1.334       .  A
C171        N172   1.355       .  A
C173        N690   1.375       .  A
C173        N178   1.374   1_655  A
C173        C179   1.477       .  S
N174        C689   1.375       .  A
C175        N346   1.363       .  A
C175        N176   1.340       .  A
C175        C186   1.476       .  S
N176        C693   1.341       .  A
C177        N692   1.341       .  A
C177        N350   1.357       .  A
C177        C403   1.475       .  S
C179        N180   1.365   1_655  A
C179        N700   1.368       .  A
N180        C181   1.359       .  A
C181        N182   1.340   1_455  A
C181        C310   1.456       .  S
N182        C699   1.347       .  A
C183        N698   1.347       .  A
C183        N184   1.363       .  A
C183        C277   1.458       .  S
N184        C695   1.368       .  A
O185        C201   1.270       .  A
C186        O202   1.275       .  A
C186        O199   1.273       .  A
O187        C200   1.304       .  A
O187       Cd194   2.245       .  S
O188        C206   1.271       .  A
O188       Cd197   2.023       .  S
O189        C203   1.270       .  A
O189       Cd193   2.055       .  S
O190        C201   1.266       .  A
O190       Cd193   2.013       .  S
Zn191       O357   2.049       .  S
Zn191       O202   1.971       .  S
Zn191       O204   1.956       .  S
Zn191       O196   1.891       .  S
O192        C203   1.268       .  A
Cd193       O195   2.034       .  S
Cd194       O198   2.164       .  S
Cd194       O207   2.210       .  S
Cd194       O196   1.994       .  S
O196       Cd365   1.964       .  S
O196       Cd197   2.005       .  S
Cd197       O364   2.011       .  S
Cd197       O199   2.108       .  S
O198        C205   1.286       .  A
C200        O204   1.263       .  A
C200        N238   1.476       .  S
C201        C256   1.486       .  S
C203        C249   1.440       .  S
C205        C335   1.473       .  S
C205        O367   1.260       .  A
C206        O207   1.300       .  A
C206        N208   1.459       .  S
N208        C212   1.358       .  A
N208        C209   1.357       .  A
C209        C246   1.449       .  S
C209        C210   1.383       .  A
C210        C211   1.365       .  A
C210        H213   1.080       .  S
C211        C212   1.378       .  A
C211        H214   1.082       .  S
C212        C235   1.454       .  S
O215        C231   1.274       .  A
O215       Zn221   1.956       .  S
C216        O232   1.265       .  A
C216        O229   1.296       .  A
C216        N252   1.471   1_455  S
O217        C230   1.273       .  A
O217       Cd224   2.045       .  S
O218        C236   1.285       .  A
O218       Cd227   2.154       .  S
O219        C233   1.282       .  A
O219       Cd223   2.082       .  S
O220        C231   1.278       .  A
O220       Cd223   2.117       .  S
Zn221       O232   1.977       .  S
Zn221       O226   1.876       .  S
O222        C233   1.292       .  A
O222       Cd227   2.163       .  S
Cd223       O226   2.017       .  S
Cd224       O228   2.033       .  S
Cd224       O237   1.969       .  S
Cd224       O398   1.946       .  S
O225        C235   1.270       .  A
O225       Cd395   2.078       .  S
O226       Cd227   1.991       .  S
Cd227       O229   2.200       .  S
O228        C235   1.258       .  A
C230        C242   1.489       .  S
C230        O234   1.270       .  A
C233        N245   1.452       .  S
O234       Zn393   2.046       .  S
O237        C408   1.259       .  A
N238        C758   1.380       .  A
N238        C239   1.369       .  A
C239        C769   1.450       .  S
C239        C756   1.373       .  A
C240        C755   1.373       .  A
C240        C241   1.354       .  A
C240        H243   1.082       .  S
C241        C242   1.383       .  A
C241        H244   1.083       .  S
C242        N754   1.380       .  A
N245        C249   1.351       .  A
N245        C246   1.359       .  A
C246        C247   1.383       .  A
C247        C248   1.354       .  A
C247        H250   1.080       .  S
C248        C249   1.375       .  A
C248        H251   1.083       .  S
N252        C772   1.375       .  A
N252        C253   1.369       .  A
C253        C755   1.450   1_655  S
C253        C770   1.372       .  A
C254        C769   1.372       .  A
C254        C255   1.354       .  A
C254        H257   1.082       .  S
C255        C256   1.386       .  A
C255        H258   1.083       .  S
C256        N768   1.375       .  A
O259        C275   1.277       .  A
O259       Zn265   2.060       .  S
C260        O448   1.272       .  A
C260        O273   1.271       .  A
C260        N282   1.450       .  S
O261        C274   1.272       .  A
O261       Cd268   2.150       .  S
O262        C280   1.278       .  A
O262       Cd443   2.074       .  S
O263        C277   1.273       .  A
O263       Cd267   2.034       .  S
O264        C275   1.268       .  A
O264       Cd267   2.091       .  S
Zn265       O276   2.035       .  S
Zn265       O278   1.919       .  S
Zn265       O270   1.873       .  S
O266        C277   1.283       .  A
O266       Cd271   2.115       .  S
Cd267       O269   2.080       .  S
Cd267       O270   2.040       .  S
Cd268       O272   2.114       .  S
Cd268       O281   2.133       .  S
Cd268       O270   2.062       .  S
O269        C279   1.273       .  A
O270       Cd271   2.011       .  S
O272        C279   1.289       .  A
O273       Cd443   2.082       .  S
C274        C341   1.482       .  S
C274        O278   1.266       .  A
C275        N319   1.458       .  S
C279        N326   1.447       .  S
C280        O453   1.281       .  A
C280        N312   1.447       .  S
N282        C286   1.359       .  A
N282        C283   1.373       .  A
C283        C320   1.518       .  S
C283        C284   1.395       .  A
C284        C285   1.376       .  A
C284        H287   1.083       .  S
C285        C286   1.378       .  A
C285        H288   1.082       .  S
C286        C290   1.489       .  S
O289        C305   1.268       .  A
O289       Zn295   1.930       .  S
C290        O478   1.267       .  A
C290        O303   1.268       .  A
O291        C304   1.273       .  A
O291       Cd298   2.076       .  S
O292        C310   1.270       .  A
O292       Cd301   2.037       .  S
O293       Cd297   2.090       .  S
O294        C305   1.274       .  A
O294       Cd297   2.139       .  S
Zn295       O306   2.008       .  S
Zn295       O308   1.979       .  S
Zn295       O300   1.874       .  S
O296        C307   1.275       .  A
O296       Cd473   2.060       .  S
Cd297       O299   2.101       .  S
Cd297       O300   2.062       .  S
Cd298       O302   2.043       .  S
Cd298       O311   2.096       .  S
Cd298       O300   1.982       .  S
O299        C309   1.274       .  A
O300       Cd301   2.002       .  S
O302        C309   1.274       .  A
O303       Cd473   2.063       .  S
C304        C323   1.483       .  S
C304        O308   1.263       .  A
C305        C343   1.478       .  S
C307        C316   1.469       .  S
C307        O465   1.282       .  A
C309        C330   1.473       .  S
C310        O311   1.280       .  A
N312        C832   1.352       .  A
N312        C313   1.377       .  A
C313        C327   1.511       .  S
C313        C830   1.399       .  A
C314        C829   1.399       .  A
C314        C315   1.370   1_655  A
C314        H317   1.081       .  S
C315        C316   1.369       .  A
C315        H318   1.082       .  S
C316        N828   1.352   1_455  A
N319        C323   1.365       .  A
N319        C320   1.377       .  A
C320        C321   1.398       .  A
C321        C322   1.369       .  A
C321        H324   1.083       .  S
C322        C323   1.372       .  A
C322        H325   1.083       .  S
N326        C846   1.351       .  A
N326        C327   1.373       .  A
C327        C844   1.391       .  A
C328        C843   1.391   1_455  A
C328        C329   1.376       .  A
C328        H331   1.083       .  S
C329        C330   1.378       .  A
C329        H332   1.082       .  S
C330        N842   1.351   1_455  A
C333        N334   1.373   1_545  A
C333        N338   1.366   1_545  A
C333        C339   1.474       .  S
C335        N506   1.368       .  A
C335        N336   1.348       .  A
N336        C337   1.353       .  A
C337        N510   1.351       .  A
C337        C408   1.465       .  S
C339        N340   1.381       .  A
C339        N344   1.378       .  A
N340        C341   1.365       .  A
C341        N342   1.338       .  A
N342        C343   1.334       .  A
C343        N344   1.355       .  A
C345        N862   1.375       .  A
C345        N350   1.374   1_655  A
C345        C351   1.477       .  S
N346        C861   1.375       .  A
C347        N348   1.340       .  A
C347        C358   1.476       .  S
N348        C865   1.341   1_556  A
C349        N864   1.341   1_554  A
C351        N352   1.365   1_655  A
C351        N872   1.368       .  A
N352        C353   1.359       .  A
C353        N354   1.340   1_455  A
C353        C482   1.456       .  S
N354        C871   1.347       .  A
C355        N870   1.347       .  A
C355        N356   1.363       .  A
C355        C449   1.458       .  S
N356        C867   1.368       .  A
O357        C373   1.270       .  A
C358        O374   1.275       .  A
C358        O371   1.273       .  A
O359        C372   1.304       .  A
O359       Cd366   2.245       .  S
O360        C378   1.271       .  A
O360       Cd369   2.023       .  S
O361        C375   1.270       .  A
O361       Cd365   2.055       .  S
O362        C373   1.266       .  A
O362       Cd365   2.013       .  S
Zn363       O374   1.971       .  S
Zn363       O376   1.956       .  S
Zn363       O368   1.891       .  S
O364        C375   1.268       .  A
Cd365       O367   2.034       .  S
Cd366       O370   2.164       .  S
Cd366       O379   2.210       .  S
Cd366       O368   1.994       .  S
O368       Cd369   2.005       .  S
Cd369       O371   2.108       .  S
O370        C377   1.286       .  A
C372        O376   1.263       .  A
C372        N410   1.476       .  S
C373        C428   1.486       .  S
C375        C421   1.440       .  S
C377        C507   1.473       .  S
C378        O379   1.300       .  A
C378        N380   1.459       .  S
N380        C384   1.358       .  A
N380        C381   1.357       .  A
C381        C418   1.449       .  S
C381        C382   1.383       .  A
C382        C383   1.365       .  A
C382        H385   1.080       .  S
C383        C384   1.378       .  A
C383        H386   1.082       .  S
C384        C407   1.454       .  S
O387        C403   1.274       .  A
O387       Zn393   1.956       .  S
C388        O404   1.265       .  A
C388        O401   1.296       .  A
C388        N424   1.471   1_455  S
O389        C402   1.273       .  A
O389       Cd396   2.045       .  S
O390        C408   1.285       .  A
O390       Cd399   2.154       .  S
O391        C405   1.282       .  A
O391       Cd395   2.082       .  S
O392        C403   1.278       .  A
O392       Cd395   2.117       .  S
Zn393       O404   1.977       .  S
Zn393       O398   1.876       .  S
O394        C405   1.292       .  A
O394       Cd399   2.163       .  S
Cd395       O398   2.017       .  S
Cd396       O400   2.033       .  S
Cd396       O409   1.969       .  S
O397        C407   1.270       .  A
O398       Cd399   1.991       .  S
Cd399       O401   2.200       .  S
O400        C407   1.258       .  A
C402        C414   1.489       .  S
C402        O406   1.270       .  A
C405        N417   1.452       .  S
N410        C930   1.380       .  A
N410        C411   1.369       .  A
C411        C941   1.450       .  S
C411        C928   1.373       .  A
C412        C927   1.373       .  A
C412        C413   1.354       .  A
C412        H415   1.082       .  S
C413        C414   1.383       .  A
C413        H416   1.083       .  S
C414        N926   1.380       .  A
N417        C421   1.351       .  A
N417        C418   1.359       .  A
C418        C419   1.383       .  A
C419        C420   1.354       .  A
C419        H422   1.080       .  S
C420        C421   1.375       .  A
C420        H423   1.083       .  S
N424        C944   1.375       .  A
N424        C425   1.369       .  A
C425        C927   1.450   1_655  S
C425        C942   1.372       .  A
C426        C941   1.372       .  A
C426        C427   1.354       .  A
C426        H429   1.082       .  S
C427        C428   1.386       .  A
C427        H430   1.083       .  S
C428        N940   1.375       .  A
O431        C447   1.277       .  A
O431       Zn437   2.060       .  S
C432        O445   1.271       .  A
C432        N454   1.450       .  S
O433        C446   1.272       .  A
O433       Cd440   2.150       .  S
O434        C452   1.278       .  A
O435        C449   1.273       .  A
O435       Cd439   2.034       .  S
O436        C447   1.268       .  A
O436       Cd439   2.091       .  S
Zn437       O448   2.035       .  S
Zn437       O450   1.919       .  S
Zn437       O442   1.873       .  S
O438        C449   1.283       .  A
O438       Cd443   2.115       .  S
Cd439       O441   2.080       .  S
Cd439       O442   2.040       .  S
Cd440       O444   2.114       .  S
Cd440       O453   2.133       .  S
Cd440       O442   2.062       .  S
O441        C451   1.273       .  A
O442       Cd443   2.011       .  S
O444        C451   1.289       .  A
C446        C513   1.482       .  S
C446        O450   1.266       .  A
C447        N491   1.458       .  S
C451        N498   1.447       .  S
C452        N484   1.447       .  S
N454        C458   1.359       .  A
N454        C455   1.373       .  A
C455        C492   1.518       .  S
C455        C456   1.395       .  A
C456        C457   1.376       .  A
C456        H459   1.083       .  S
C457        C458   1.378       .  A
C457        H460   1.082       .  S
C458        C462   1.489       .  S
O461        C477   1.268       .  A
O461       Zn467   1.930       .  S
C462        O475   1.268       .  A
O463        C476   1.273       .  A
O463       Cd470   2.076       .  S
O464        C482   1.270       .  A
O464       Cd473   2.037       .  S
O465       Cd469   2.090       .  S
O466        C477   1.274       .  A
O466       Cd469   2.139       .  S
Zn467       O478   2.008       .  S
Zn467       O480   1.979       .  S
Zn467       O472   1.874       .  S
O468        C479   1.275       .  A
Cd469       O471   2.101       .  S
Cd469       O472   2.062       .  S
Cd470       O474   2.043       .  S
Cd470       O483   2.096       .  S
Cd470       O472   1.982       .  S
O471        C481   1.274       .  A
O472       Cd473   2.002       .  S
O474        C481   1.274       .  A
C476        C495   1.483       .  S
C476        O480   1.263       .  A
C477        C515   1.478       .  S
C479        C488   1.469       .  S
C481        C502   1.473       .  S
C482        O483   1.280       .  A
N484       C1004   1.352       .  A
N484        C485   1.377       .  A
C485        C499   1.511       .  S
C485       C1002   1.399       .  A
C486       C1001   1.399       .  A
C486        C487   1.370   1_655  A
C486        H489   1.081       .  S
C487        C488   1.369       .  A
C487        H490   1.082       .  S
C488       N1000   1.352   1_455  A
N491        C495   1.365       .  A
N491        C492   1.377       .  A
C492        C493   1.398       .  A
C493        C494   1.369       .  A
C493        H496   1.083       .  S
C494        C495   1.372       .  A
C494        H497   1.083       .  S
N498       C1018   1.351       .  A
N498        C499   1.373       .  A
C499       C1016   1.391       .  A
C500       C1015   1.391   1_455  A
C500        C501   1.376       .  A
C500        H503   1.083       .  S
C501        C502   1.378       .  A
C501        H504   1.082       .  S
C502       N1014   1.351   1_455  A
C505        N506   1.373   1_545  A
C505        N510   1.366   1_545  A
C505        C511   1.474       .  S
C507        N508   1.348       .  A
N508        C509   1.353       .  A
C511        N512   1.381       .  A
C511        N516   1.378       .  A
N512        C513   1.365       .  A
C513        N514   1.338       .  A
N514        C515   1.334       .  A
C515        N516   1.355       .  A
C517        N522   1.374       .  A
C517        C523   1.477       .  S
N518        C863   1.363   1_554  A
C519        N690   1.363       .  A
C519        N520   1.340   1_655  A
C519        C530   1.476       .  S
C521        N694   1.357       .  A
C521        C747   1.475       .  S
N522        C865   1.357       .  A
C523        N524   1.365       .  A
N524        C525   1.359       .  A
C525        N526   1.340       .  A
C525        C654   1.456       .  S
C527        N528   1.363       .  A
C527        C621   1.458       .  S
O529        C545   1.270       .  A
O529       Zn879   2.049   1_554  S
C530        O546   1.275       .  A
C530        O543   1.273       .  A
O531        C544   1.304       .  A
O531       Cd538   2.245       .  S
O532        C550   1.271       .  A
O532       Cd541   2.023       .  S
O533        C547   1.270       .  A
O533       Cd537   2.055       .  S
O534        C545   1.266       .  A
O534       Cd537   2.013       .  S
Zn535       O701   2.049       .  S
Zn535       O546   1.971       .  S
Zn535       O548   1.956       .  S
Zn535       O540   1.891       .  S
O536        C547   1.268       .  A
O536       Cd885   2.011   1_554  S
Cd537       O539   2.034   1_554  S
Cd537       O884   1.964   1_554  S
Cd538       O542   2.164       .  S
Cd538       O551   2.210       .  S
Cd538       O540   1.994       .  S
O539        C893   1.260       .  A
O540       Cd709   1.964       .  S
O540       Cd541   2.005       .  S
Cd541       O708   2.011       .  S
Cd541       O543   2.108       .  S
O542        C549   1.286       .  A
C544        O548   1.263       .  A
C544        N582   1.476   1_655  S
C545        C600   1.486       .  S
C547        C593   1.440       .  S
C549        C679   1.473       .  S
C549        O711   1.260       .  A
C550        O551   1.300       .  A
C550        N552   1.459       .  S
N552        C556   1.358       .  A
N552        C553   1.357       .  A
C553        C590   1.449       .  S
C553        C554   1.383       .  A
C554        C555   1.365       .  A
C554        H557   1.080       .  S
C555        C556   1.378       .  A
C555        H558   1.082       .  S
C556        C579   1.454       .  S
O559        C575   1.274       .  A
O559       Zn565   1.956       .  S
C560        O576   1.265       .  A
C560        O573   1.296       .  A
C560        N596   1.471       .  S
O561        C574   1.273       .  A
O561       Cd568   2.045       .  S
O562        C580   1.285       .  A
O562       Cd571   2.154       .  S
O563        C577   1.282       .  A
O563       Cd567   2.082       .  S
O564        C575   1.278       .  A
O564       Cd567   2.117       .  S
Zn565       O576   1.977       .  S
Zn565       O922   2.046   1_554  S
Zn565       O570   1.876       .  S
O566        C577   1.292       .  A
O566       Cd571   2.163       .  S
Cd567       O913   2.078   1_554  S
Cd567       O570   2.017       .  S
Cd568       O572   2.033       .  S
Cd568       O581   1.969       .  S
Cd568       O742   1.946       .  S
O569        C579   1.270       .  A
O569       Cd739   2.078       .  S
O570       Cd912   1.946   1_554  S
O570       Cd571   1.991       .  S
Cd571       O573   2.200       .  S
O572        C579   1.258       .  A
C574        C586   1.489       .  S
C574        O578   1.270       .  A
C575        C865   1.475       .  S
C577        N589   1.452       .  S
O578       Zn737   2.046       .  S
C580       C1025   1.465   1_554  S
C580        O925   1.259   1_554  A
O581        C752   1.259       .  A
N582        C583   1.369       .  A
C584        C585   1.354       .  A
C584        H587   1.082       .  S
C585        C586   1.383       .  A
C585        H588   1.083       .  S
N589        C593   1.351       .  A
N589        C590   1.359       .  A
C590        C591   1.383       .  A
C591        C592   1.354       .  A
C591        H594   1.080       .  S
C592        C593   1.375       .  A
C592        H595   1.083       .  S
N596        C597   1.369       .  A
C598        C599   1.354       .  A
C598        H601   1.082       .  S
C599        C600   1.386       .  A
C599        H602   1.083       .  S
O603        C619   1.277       .  A
O603       Zn609   2.060       .  S
C604        O792   1.272       .  A
C604        O617   1.271       .  A
C604        N626   1.450       .  S
O605        C618   1.272       .  A
O605       Cd612   2.150       .  S
O606        C624   1.278       .  A
O606       Cd787   2.074       .  S
O607        C621   1.273       .  A
O607       Cd611   2.034       .  S
O608        C619   1.268       .  A
O608       Cd611   2.091       .  S
Zn609       O620   2.035       .  S
Zn609       O622   1.919       .  S
Zn609       O614   1.873       .  S
O610        C621   1.283       .  A
O610       Cd615   2.115       .  S
Cd611       O613   2.080       .  S
Cd611       O614   2.040       .  S
Cd612       O616   2.114       .  S
Cd612       O625   2.133       .  S
Cd612       O614   2.062       .  S
O613        C623   1.273       .  A
O614       Cd615   2.011       .  S
Cd615       O950   2.074   1_554  S
Cd615       O961   2.082   1_554  S
O616        C623   1.289       .  A
O617       Cd787   2.082       .  S
C618        C685   1.482       .  S
C618        O622   1.266       .  A
C619        N663   1.458       .  S
O620        C948   1.272   1_554  A
C623        N670   1.447       .  S
C624        O797   1.281       .  A
C624        N656   1.447       .  S
O625        C968   1.281   1_554  A
N626        C630   1.359       .  A
N626        C627   1.373       .  A
C627        C664   1.518       .  S
C627        C628   1.395       .  A
C628        C629   1.376       .  A
C628        H631   1.083       .  S
C629        C630   1.378       .  A
C629        H632   1.082       .  S
C630        C634   1.489       .  S
O633        C649   1.268       .  A
O633       Zn639   1.930       .  S
C634        O822   1.267       .  A
C634        O647   1.268       .  A
O635        C648   1.273       .  A
O635       Cd642   2.076       .  S
O636        C654   1.270       .  A
O636       Cd645   2.037       .  S
O637        C995   1.282   1_554  A
O637       Cd641   2.090       .  S
O638        C649   1.274       .  A
O638       Cd641   2.139       .  S
Zn639       O650   2.008       .  S
Zn639       O652   1.979       .  S
Zn639       O644   1.874       .  S
O640        C651   1.275       .  A
O640       Cd817   2.060       .  S
Cd641       O643   2.101       .  S
Cd641       O644   2.062       .  S
Cd642       O646   2.043       .  S
Cd642       O655   2.096       .  S
Cd642       O644   1.982       .  S
O643        C653   1.274       .  A
O644       Cd645   2.002       .  S
Cd645       O984   2.060   1_554  S
Cd645       O991   2.063   1_554  S
O646        C653   1.274       .  A
O647       Cd817   2.063       .  S
C648        C667   1.483       .  S
C648        O652   1.263       .  A
C649        C687   1.478       .  S
O650        C978   1.267   1_554  A
C651        C660   1.469       .  S
C651        O809   1.282       .  A
C653        C674   1.473       .  S
C654        O655   1.280       .  A
N656        C657   1.377       .  A
C657        C671   1.511       .  S
C658        C659   1.370       .  A
C658        H661   1.081       .  S
C659        C660   1.369       .  A
C659        H662   1.082       .  S
N663        C667   1.365       .  A
N663        C664   1.377       .  A
C664        C665   1.398       .  A
C665        C666   1.369       .  A
C665        H668   1.083       .  S
C666        C667   1.372       .  A
C666        H669   1.083       .  S
N670        C671   1.373       .  A
C672        C673   1.376       .  A
C672        H675   1.083       .  S
C673        C674   1.378       .  A
C673        H676   1.082       .  S
C677        N678   1.373   1_544  A
C677        N682   1.366   1_545  A
C677        C683   1.474       .  S
N678       C1023   1.368       .  A
C679        N850   1.368       .  A
C679        N680   1.348       .  A
N680        C681   1.353       .  A
C681        N854   1.351       .  A
C681        C752   1.465       .  S
N682       C1025   1.351   1_554  A
C683        N684   1.381       .  A
C683        N688   1.378       .  A
N684        C685   1.365       .  A
C685        N686   1.338       .  A
N686        C687   1.334       .  A
C687        N688   1.355       .  A
C689        N694   1.374       .  A
C689        C695   1.477       .  S
C691        N862   1.363       .  A
C691        N692   1.340   1_655  A
C691        C702   1.476       .  S
C693        N866   1.357       .  A
C693        C919   1.475       .  S
C695        N696   1.365       .  A
N696        C697   1.359       .  A
C697        N698   1.340       .  A
C697        C826   1.456       .  S
C699        N700   1.363       .  A
C699        C793   1.458       .  S
O701        C717   1.270       .  A
C702        O718   1.275       .  A
C702        O715   1.273       .  A
O703        C716   1.304       .  A
O703       Cd710   2.245       .  S
O704        C722   1.271       .  A
O704       Cd713   2.023       .  S
O705        C719   1.270       .  A
O705       Cd709   2.055       .  S
O706        C717   1.266       .  A
O706       Cd709   2.013       .  S
Zn707       O873   2.049       .  S
Zn707       O718   1.971       .  S
Zn707       O720   1.956       .  S
Zn707       O712   1.891       .  S
O708        C719   1.268       .  A
Cd709       O711   2.034       .  S
Cd710       O714   2.164       .  S
Cd710       O723   2.210       .  S
Cd710       O712   1.994       .  S
O712       Cd881   1.964       .  S
O712       Cd713   2.005       .  S
Cd713       O880   2.011       .  S
Cd713       O715   2.108       .  S
O714        C721   1.286       .  A
C716        O720   1.263       .  A
C716        N754   1.476   1_655  S
C717        C772   1.486       .  S
C719        C765   1.440       .  S
C721        C851   1.473       .  S
C721        O883   1.260       .  A
C722        O723   1.300       .  A
C722        N724   1.459       .  S
N724        C728   1.358       .  A
N724        C725   1.357       .  A
C725        C762   1.449       .  S
C725        C726   1.383       .  A
C726        C727   1.365       .  A
C726        H729   1.080       .  S
C727        C728   1.378       .  A
C727        H730   1.082       .  S
C728        C751   1.454       .  S
O731        C747   1.274       .  A
O731       Zn737   1.956       .  S
C732        O748   1.265       .  A
C732        O745   1.296       .  A
C732        N768   1.471       .  S
O733        C746   1.273       .  A
O733       Cd740   2.045       .  S
O734        C752   1.285       .  A
O734       Cd743   2.154       .  S
O735        C749   1.282       .  A
O735       Cd739   2.082       .  S
O736        C747   1.278       .  A
O736       Cd739   2.117       .  S
Zn737       O748   1.977       .  S
Zn737       O742   1.876       .  S
O738        C749   1.292       .  A
O738       Cd743   2.163       .  S
Cd739       O742   2.017       .  S
Cd740       O744   2.033       .  S
Cd740       O753   1.969       .  S
Cd740       O914   1.946       .  S
O741        C751   1.270       .  A
O741       Cd911   2.078       .  S
O742       Cd743   1.991       .  S
Cd743       O745   2.200       .  S
O744        C751   1.258       .  A
C746        C758   1.489       .  S
C746        O750   1.270       .  A
C749        N761   1.452       .  S
O750       Zn909   2.046       .  S
O753        C924   1.259       .  A
N754        C755   1.369       .  A
C756        C757   1.354       .  A
C756        H759   1.082       .  S
C757        C758   1.383       .  A
C757        H760   1.083       .  S
N761        C765   1.351       .  A
N761        C762   1.359       .  A
C762        C763   1.383       .  A
C763        C764   1.354       .  A
C763        H766   1.080       .  S
C764        C765   1.375       .  A
C764        H767   1.083       .  S
N768        C769   1.369       .  A
C770        C771   1.354       .  A
C770        H773   1.082       .  S
C771        C772   1.386       .  A
C771        H774   1.083       .  S
O775        C791   1.277       .  A
O775       Zn781   2.060       .  S
C776        O964   1.272       .  A
C776        O789   1.271       .  A
C776        N798   1.450       .  S
O777        C790   1.272       .  A
O777       Cd784   2.150       .  S
O778        C796   1.278       .  A
O778       Cd959   2.074       .  S
O779        C793   1.273       .  A
O779       Cd783   2.034       .  S
O780        C791   1.268       .  A
O780       Cd783   2.091       .  S
Zn781       O792   2.035       .  S
Zn781       O794   1.919       .  S
Zn781       O786   1.873       .  S
O782        C793   1.283       .  A
O782       Cd787   2.115       .  S
Cd783       O785   2.080       .  S
Cd783       O786   2.040       .  S
Cd784       O788   2.114       .  S
Cd784       O797   2.133       .  S
Cd784       O786   2.062       .  S
O785        C795   1.273       .  A
O786       Cd787   2.011       .  S
O788        C795   1.289       .  A
O789       Cd959   2.082       .  S
C790        C857   1.482       .  S
C790        O794   1.266       .  A
C791        N835   1.458       .  S
C795        N842   1.447       .  S
C796        O969   1.281       .  A
C796        N828   1.447       .  S
N798        C802   1.359       .  A
N798        C799   1.373       .  A
C799        C836   1.518       .  S
C799        C800   1.395       .  A
C800        C801   1.376       .  A
C800        H803   1.083       .  S
C801        C802   1.378       .  A
C801        H804   1.082       .  S
C802        C806   1.489       .  S
O805        C821   1.268       .  A
O805       Zn811   1.930       .  S
C806        O994   1.267       .  A
C806        O819   1.268       .  A
O807        C820   1.273       .  A
O807       Cd814   2.076       .  S
O808        C826   1.270       .  A
O808       Cd817   2.037       .  S
O809       Cd813   2.090       .  S
O810        C821   1.274       .  A
O810       Cd813   2.139       .  S
Zn811       O822   2.008       .  S
Zn811       O824   1.979       .  S
Zn811       O816   1.874       .  S
O812        C823   1.275       .  A
O812       Cd989   2.060       .  S
Cd813       O815   2.101       .  S
Cd813       O816   2.062       .  S
Cd814       O818   2.043       .  S
Cd814       O827   2.096       .  S
Cd814       O816   1.982       .  S
O815        C825   1.274       .  A
O816       Cd817   2.002       .  S
O818        C825   1.274       .  A
O819       Cd989   2.063       .  S
C820        C839   1.483       .  S
C820        O824   1.263       .  A
C821        C859   1.478       .  S
C823        C832   1.469       .  S
C823        O981   1.282       .  A
C825        C846   1.473       .  S
C826        O827   1.280       .  A
N828        C829   1.377       .  A
C829        C843   1.511       .  S
C830        C831   1.370       .  A
C830        H833   1.081       .  S
C831        C832   1.369       .  A
C831        H834   1.082       .  S
N835        C839   1.365       .  A
N835        C836   1.377       .  A
C836        C837   1.398       .  A
C837        C838   1.369       .  A
C837        H840   1.083       .  S
C838        C839   1.372       .  A
C838        H841   1.083       .  S
N842        C843   1.373       .  A
C844        C845   1.376       .  A
C844        H847   1.083       .  S
C845        C846   1.378       .  A
C845        H848   1.082       .  S
C849        N850   1.373   1_545  A
C849        N854   1.366   1_545  A
C849        C855   1.474       .  S
C851       N1022   1.368       .  A
C851        N852   1.348       .  A
N852        C853   1.353       .  A
C853       N1026   1.351       .  A
C853        C924   1.465       .  S
C855        N856   1.381       .  A
C855        N860   1.378       .  A
N856        C857   1.365       .  A
C857        N858   1.338       .  A
N858        C859   1.334       .  A
C859        N860   1.355       .  A
C861        N866   1.374       .  A
C861        C867   1.477       .  S
C863        N864   1.340   1_655  A
C863        C874   1.476       .  S
C867        N868   1.365       .  A
N868        C869   1.359       .  A
C869        N870   1.340       .  A
C869        C998   1.456       .  S
C871        N872   1.363       .  A
C871        C965   1.458       .  S
O873        C889   1.270       .  A
C874        O890   1.275       .  A
C874        O887   1.273       .  A
O875        C888   1.304       .  A
O875       Cd882   2.245       .  S
O876        C894   1.271       .  A
O876       Cd885   2.023       .  S
O877        C891   1.270       .  A
O877       Cd881   2.055       .  S
O878        C889   1.266       .  A
O878       Cd881   2.013       .  S
Zn879       O890   1.971       .  S
Zn879       O892   1.956       .  S
Zn879       O884   1.891       .  S
O880        C891   1.268       .  A
Cd881       O883   2.034       .  S
Cd882       O886   2.164       .  S
Cd882       O895   2.210       .  S
Cd882       O884   1.994       .  S
O884       Cd885   2.005       .  S
Cd885       O887   2.108       .  S
O886        C893   1.286       .  A
C888        O892   1.263       .  A
C888        N926   1.476   1_655  S
C889        C944   1.486       .  S
C891        C937   1.440       .  S
C893       C1023   1.473       .  S
C894        O895   1.300       .  A
C894        N896   1.459       .  S
N896        C900   1.358       .  A
N896        C897   1.357       .  A
C897        C934   1.449       .  S
C897        C898   1.383       .  A
C898        C899   1.365       .  A
C898        H901   1.080       .  S
C899        C900   1.378       .  A
C899        H902   1.082       .  S
C900        C923   1.454       .  S
O903        C919   1.274       .  A
O903       Zn909   1.956       .  S
C904        O920   1.265       .  A
C904        O917   1.296       .  A
C904        N940   1.471       .  S
O905        C918   1.273       .  A
O905       Cd912   2.045       .  S
O906        C924   1.285       .  A
O906       Cd915   2.154       .  S
O907        C921   1.282       .  A
O907       Cd911   2.082       .  S
O908        C919   1.278       .  A
O908       Cd911   2.117       .  S
Zn909       O920   1.977       .  S
Zn909       O914   1.876       .  S
O910        C921   1.292       .  A
O910       Cd915   2.163       .  S
Cd911       O914   2.017       .  S
Cd912       O916   2.033       .  S
Cd912       O925   1.969       .  S
O913        C923   1.270       .  A
O914       Cd915   1.991       .  S
Cd915       O917   2.200       .  S
O916        C923   1.258       .  A
C918        C930   1.489       .  S
C918        O922   1.270       .  A
C921        N933   1.452       .  S
N926        C927   1.369       .  A
C928        C929   1.354       .  A
C928        H931   1.082       .  S
C929        C930   1.383       .  A
C929        H932   1.083       .  S
N933        C937   1.351       .  A
N933        C934   1.359       .  A
C934        C935   1.383       .  A
C935        C936   1.354       .  A
C935        H938   1.080       .  S
C936        C937   1.375       .  A
C936        H939   1.083       .  S
N940        C941   1.369       .  A
C942        C943   1.354       .  A
C942        H945   1.082       .  S
C943        C944   1.386       .  A
C943        H946   1.083       .  S
O947        C963   1.277       .  A
O947       Zn953   2.060       .  S
C948        O961   1.271       .  A
C948        N970   1.450       .  S
O949        C962   1.272       .  A
O949       Cd956   2.150       .  S
O950        C968   1.278       .  A
O951        C965   1.273       .  A
O951       Cd955   2.034       .  S
O952        C963   1.268       .  A
O952       Cd955   2.091       .  S
Zn953       O964   2.035       .  S
Zn953       O966   1.919       .  S
Zn953       O958   1.873       .  S
O954        C965   1.283       .  A
O954       Cd959   2.115       .  S
Cd955       O957   2.080       .  S
Cd955       O958   2.040       .  S
Cd956       O960   2.114       .  S
Cd956       O969   2.133       .  S
Cd956       O958   2.062       .  S
O957        C967   1.273       .  A
O958       Cd959   2.011       .  S
O960        C967   1.289       .  A
C962       C1029   1.482       .  S
C962        O966   1.266       .  A
C963       N1007   1.458       .  S
C967       N1014   1.447       .  S
C968       N1000   1.447       .  S
N970        C974   1.359       .  A
N970        C971   1.373       .  A
C971       C1008   1.518       .  S
C971        C972   1.395       .  A
C972        C973   1.376       .  A
C972        H975   1.083       .  S
C973        C974   1.378       .  A
C973        H976   1.082       .  S
C974        C978   1.489       .  S
O977        C993   1.268       .  A
O977       Zn983   1.930       .  S
C978        O991   1.268       .  A
O979        C992   1.273       .  A
O979       Cd986   2.076       .  S
O980        C998   1.270       .  A
O980       Cd989   2.037       .  S
O981       Cd985   2.090       .  S
O982        C993   1.274       .  A
O982       Cd985   2.139       .  S
Zn983       O994   2.008       .  S
Zn983       O996   1.979       .  S
Zn983       O988   1.874       .  S
O984        C995   1.275       .  A
Cd985       O987   2.101       .  S
Cd985       O988   2.062       .  S
Cd986       O990   2.043       .  S
Cd986       O999   2.096       .  S
Cd986       O988   1.982       .  S
O987        C997   1.274       .  A
O988       Cd989   2.002       .  S
O990        C997   1.274       .  A
C992       C1011   1.483       .  S
C992        O996   1.263       .  A
C993       C1031   1.478       .  S
C995       C1004   1.469       .  S
C997       C1018   1.473       .  S
C998        O999   1.280       .  A
N1000      C1001   1.377       .  A
C1001      C1015   1.511       .  S
C1002      C1003   1.370       .  A
C1002      H1005   1.081       .  S
C1003      C1004   1.369       .  A
C1003      H1006   1.082       .  S
N1007      C1011   1.365       .  A
N1007      C1008   1.377       .  A
C1008      C1009   1.398       .  A
C1009      C1010   1.369       .  A
C1009      H1012   1.083       .  S
C1010      C1011   1.372       .  A
C1010      H1013   1.083       .  S
N1014      C1015   1.373       .  A
C1016      C1017   1.376       .  A
C1016      H1019   1.083       .  S
C1017      C1018   1.378       .  A
C1017      H1020   1.082       .  S
C1021      N1022   1.373   1_545  A
C1021      N1026   1.366   1_545  A
C1021      C1027   1.474       .  S
C1023      N1024   1.348       .  A
N1024      C1025   1.353       .  A
C1027      N1028   1.381       .  A
C1027      N1032   1.378       .  A
N1028      C1029   1.365       .  A
C1029      N1030   1.338       .  A
N1030      C1031   1.334       .  A
C1031      N1032   1.355       .  A
