geometry optimzed in LAMMPS
_audit_creation_date              2020-11-30 
_audit_creation_method            'lammps2cif' 
_symmetry_space_group_name_H-M    'P1' 
_symmetry_Int_Tables_number       1 
_symmetry_cell_setting            triclinic 
loop_ 
_symmetry_equiv_pos_as_xyz 
  x,y,z 
_cell_length_a                    47.4984702259724 
_cell_length_b                    28.11449736923298 
_cell_length_c                    36.76592804484835 
_cell_angle_alpha                 90.0673536255126 
_cell_angle_beta                  90.01146405459795 
_cell_angle_gamma                 90.0310192573134 
loop_ 
_atom_site_label 
_atom_site_type_symbol 
_atom_site_fract_x 
_atom_site_fract_y 
_atom_site_fract_z 
_atom_site_charge 
C1          C  0.47466596  0.63902108  0.49760816     0.03020
C2          C  0.47472181  0.59008384  0.00485031    -0.13130
C3          C  0.00033618  0.56376316  0.00616510     0.00520
C4          C  0.02594843  0.58989228  0.00293620    -0.11660
C5          C  0.02575106  0.63907381  0.49632721     0.03010
C6          C  0.50013427  0.66192563  0.49122944    -0.11080
H7          H  0.45462336  0.57398313  0.01036456     0.08600
H8          H  0.04621782  0.57344825  0.00627703     0.06130
H9          H  0.50006344  0.69929052  0.48408468     0.05980
C10         C  0.47436842  0.43543493  0.02161099     0.03020
C11         C  0.47454542  0.48426657  0.01397607    -0.13130
C12         C  0.00025374  0.51036168  0.01244888     0.00520
C13         C  0.02579010  0.48406427  0.01578532    -0.11660
C14         C  0.02546866  0.43497814  0.02279267     0.03010
C15         C  0.99978247  0.41240472  0.02800402    -0.11080
H16         H  0.45448076  0.50048713  0.00851112     0.08600
H17         H  0.04611213  0.50034566  0.01241842     0.06130
H18         H  0.99960732  0.37517704  0.03551703     0.05980
Zr19       Zr  0.32232454  0.78608344  0.00115655     2.17510
O20         O  0.28088628  0.73533156  0.49775592    -0.51440
O21         O  0.29741680  0.86046005  0.00179378    -0.74650
O22         O  0.29802087  0.78270774  0.05804544    -0.81430
O23         O  0.32722339  0.78548330  0.39623977    -0.83180
O24         O  0.32737731  0.78335967  0.10647034    -0.78800
O25         O  0.29780610  0.78166683  0.44458866    -0.90440
O26         O  0.32601231  0.92471082  0.00224102    -0.76400
O27         O  0.34680778  0.83724960  0.04134554    -0.85890
O28         O  0.34696933  0.83818344  0.46188632    -0.85580
O29         O  0.34877649  0.73318641  0.03863407    -0.72340
O30         O  0.34906219  0.73444108  0.46308286    -0.84470
Zr31       Zr  0.42749130  0.78713595  0.00124405     2.26420
Zr32       Zr  0.37493749  0.78522400  0.07833087     2.06270
Zr33       Zr  0.37497406  0.78728116  0.42402747     2.10050
Zr34       Zr  0.37247154  0.88888025  0.00202341     1.78760
O35         O  0.37490230  0.72402911  0.37876147    -0.93280
O36         O  0.37224202  0.94262427  0.05405762    -0.41090
O37         O  0.40090751  0.83936779  0.46367435    -0.77720
O38         O  0.40086979  0.83846812  0.03966984    -0.96410
O39         O  0.40311287  0.73481541  0.04048438    -0.89710
O40         O  0.40282588  0.73580095  0.46124235    -0.92550
C41         C  0.30159315  0.90549009  0.00180469     1.01200
C42         C  0.30232175  0.78320708  0.41033883     1.14130
C43         C  0.30248303  0.78240254  0.09231966     1.04910
O44         O  0.37557607  0.84768764  0.12423493    -0.94710
O45         O  0.42290964  0.78578220  0.10570923    -0.90450
O46         O  0.45246893  0.78536153  0.05738112    -0.83600
C47         C  0.44787441  0.78557099  0.09161510     1.11550
O48         O  0.33510498  0.63508447  0.50096562    -0.96680
Zr49       Zr  0.37758776  0.68392576  0.00058383     1.88940
O50         O  0.45327406  0.71388770  0.00010907    -0.73330
O51         O  0.37557501  0.72092390  0.12265593    -0.52590
O52         O  0.38040338  0.63107224  0.05292997    -0.97270
O53         O  0.37752254  0.62762672  0.45009167    -0.54490
O54         O  0.42459832  0.64958252  0.99899876    -0.73850
C55         C  0.44904654  0.66890497  0.99896081     0.98500
O56         O  0.46522878  0.84585538  0.00201094    -0.62670
O57         O  0.37572991  0.85112286  0.37932225    -0.57470
O58         O  0.45251410  0.78956878  0.44515812    -0.94150
O59         O  0.42296824  0.78917679  0.39677683    -0.92580
O60         O  0.37051571  0.94419071  0.45116169    -0.92930
O61         O  0.41422870  0.93916810  0.49968735    -0.91720
C62         C  0.44792234  0.78986689  0.41090940     1.17340
H63         H  0.33425819  0.85674836  0.44710938     0.33280
H64         H  0.41328476  0.85785708  0.05429226     0.44140
H65         H  0.41553931  0.71764157  0.44616102     0.37660
H66         H  0.33628725  0.71320015  0.05263816     0.34140
H67         H  0.36758823  0.97415384  0.04369648     0.25930
H68         H  0.37026175  0.73621820  0.14593572     0.31870
H69         H  0.38741344  0.60053480  0.04300642     0.37780
H70         H  0.36614682  0.97539069  0.46234070     0.32240
H71         H  0.37088911  0.83545761  0.35601069     0.31110
H72         H  0.37716493  0.74067148  0.35522306     0.32790
H73         H  0.38555467  0.59799873  0.46028045     0.31760
H74         H  0.42453263  0.93274723  0.02257679     0.35760
H75         H  0.46050862  0.86835337  0.48222474     0.28490
H76         H  0.26531599  0.75638093  0.00536926     0.32730
H77         H  0.34168609  0.60191355  0.00420773     0.35580
H78         H  0.35908535  0.87089197  0.38515782     0.28190
H79         H  0.46238027  0.86459376  0.02452286     0.41060
H80         H  0.35916705  0.86795183  0.11831179     0.31110
H81         H  0.35531130  0.93356731  0.06814941     0.38730
H82         H  0.39212930  0.63947447  0.43316629     0.30580
H83         H  0.35922253  0.70070828  0.11628930     0.30650
H84         H  0.28294700  0.71195255  0.01771101     0.30910
C85         C  0.24991577  0.78229369  0.33035026     0.03020
C86         C  0.27581172  0.78187289  0.34945192    -0.13130
C87         C  0.27607916  0.78320007  0.38755876     0.00520
C88         C  0.25002768  0.78510490  0.40576592    -0.11660
C89         C  0.22390262  0.78509063  0.38764652     0.03010
C90         C  0.22406039  0.78376157  0.34951736    -0.11080
H91         H  0.29549258  0.78056145  0.33459763     0.08600
H92         H  0.25009656  0.78680566  0.43511908     0.06130
H93         H  0.20434261  0.78406461  0.33470704     0.05980
Zr94       Zr  0.07238010  0.78862121  0.00136280     2.17510
O95         O  0.03059958  0.83836347  0.00580755    -0.51440
O96         O  0.04725723  0.71422016  0.99899674    -0.74650
O97         O  0.04804290  0.79476575  0.44480103    -0.81430
O98         O  0.07723526  0.79043862  0.10605949    -0.83180
O99         O  0.07729259  0.79266120  0.39632867    -0.78800
O100        O  0.04788503  0.79437441  0.05765235    -0.90440
O101        O  0.07578034  0.64994888  0.99747873    -0.76400
O102        O  0.09663170  0.73720680  0.46121366    -0.85890
O103        O  0.09677375  0.73624169  0.04067188    -0.85580
O104        O  0.09897595  0.84134047  0.46391856    -0.72340
O105        O  0.09931813  0.83998049  0.03948095    -0.84470
Zr106      Zr  0.17770667  0.78663720  0.00131384     2.26420
Zr107      Zr  0.12491771  0.78901587  0.42425493     2.06270
Zr108      Zr  0.12504297  0.78696063  0.07850454     2.10050
Zr109      Zr  0.12220303  0.68546716  0.00056038     1.78760
O110        O  0.12599497  0.85045124  0.12356050    -0.93280
O111        O  0.12381632  0.63151350  0.44871068    -0.41090
O112        O  0.15084251  0.73473940  0.03885974    -0.77720
O113        O  0.15073462  0.73560461  0.46294786    -0.96410
O114        O  0.15331273  0.83908790  0.46215494    -0.89710
O115        O  0.15321778  0.83817562  0.04130300    -0.92550
C116        C  0.05139164  0.66919370  0.99743417     1.01200
C117        C  0.05236776  0.79307323  0.09187314     1.14130
C118        C  0.05245046  0.79473498  0.41056222     1.04910
O119        O  0.12438506  0.72653544  0.37835660    -0.94710
O120        O  0.17273861  0.78680613  0.39655402    -0.90450
O121        O  0.20238125  0.78634831  0.44481411    -0.83600
C122        C  0.19772793  0.78623769  0.41056377     1.11550
O123        O  0.08555629  0.93904949  0.00367739    -0.96680
Zr124      Zr  0.12796056  0.89021444  0.00201624     1.88940
O125        O  0.20347245  0.86018659  0.00081028    -0.73330
O126        O  0.12650667  0.85332776  0.37998690    -0.52590
O127        O  0.12893541  0.94332963  0.44971507    -0.97270
O128        O  0.12995499  0.94645407  0.05251082    -0.54490
O129        O  0.17486503  0.92454769  0.00077049    -0.73850
C130        C  0.19927422  0.90523393  0.00035680     0.98500
O131        O  0.21552727  0.72809415  0.00108336    -0.62670
O132        O  0.12460784  0.72340184  0.12346344    -0.57470
O133        O  0.20251706  0.78357624  0.05773377    -0.94150
O134        O  0.17289954  0.78327335  0.10603043    -0.92580
O135        O  0.11810262  0.63050567  0.05143890    -0.92930
O136        O  0.16364063  0.63470578  0.00488534    -0.91720
C137        C  0.19787594  0.78264747  0.09199079     1.17340
H138        H  0.08389623  0.71780087  0.05531510     0.33280
H139        H  0.16302436  0.71598093  0.44835393     0.44140
H140        H  0.16608124  0.85621059  0.05628576     0.37660
H141        H  0.08662209  0.86158658  0.44994819     0.34140
H142        H  0.11823916  0.60020423  0.45870927     0.25930
H143        H  0.12085053  0.83832271  0.35672551     0.31870
H144        H  0.13613230  0.97391021  0.45935892     0.37780
H145        H  0.11413816  0.59923780  0.04010444     0.32240
H146        H  0.11975401  0.73937784  0.14664154     0.31110
H147        H  0.12732053  0.83380429  0.14721538     0.32790
H148        H  0.13721253  0.97630338  0.04172769     0.31760
H149        H  0.17512257  0.64256119  0.48326540     0.35760
H150        H  0.21082876  0.70574056  0.02097391     0.28490
H151        H  0.01511523  0.81748984  0.99747768     0.32730
H152        H  0.09204475  0.97231363  0.50091640     0.35580
H153        H  0.10777724  0.70414074  0.11745875     0.28190
H154        H  0.21274713  0.70906478  0.47869191     0.41060
H155        H  0.10723807  0.70778049  0.38373186     0.31110
H156        H  0.10774129  0.64112891  0.43323606     0.38730
H157        H  0.14545524  0.93503880  0.06823490     0.30580
H158        H  0.11052091  0.87427184  0.38646698     0.30650
H159        H  0.03256941  0.86289286  0.48663422     0.30910
C160        C  0.50005228  0.79407046  0.33065650     0.03020
C161        C  0.47432922  0.79004682  0.35004620    -0.13130
C162        C  0.47411384  0.79137332  0.38811998     0.00520
C163        C  0.50015855  0.79367863  0.40624660    -0.11660
C164        C  0.02615021  0.79588180  0.38799726     0.03010
C165        C  0.02582180  0.79785216  0.34997334    -0.11080
H166        H  0.45463586  0.78604695  0.33551244     0.08600
H167        H  0.50021109  0.79320754  0.43560092     0.06130
H168        H  0.04550990  0.80159141  0.33540346     0.05980
C169        C  0.25005314  0.78045540  0.17227616     0.03020
C170        C  0.27596095  0.78055110  0.15319163    -0.13130
C171        C  0.27623185  0.78113590  0.11506964     0.00520
C172        C  0.25016892  0.78113135  0.09683041    -0.11660
C173        C  0.22404575  0.78124457  0.11492166     0.03010
C174        C  0.22419936  0.78091157  0.15306072    -0.11080
H175        H  0.29564957  0.78039743  0.16807091     0.08600
H176        H  0.25021477  0.78152594  0.06747611     0.06130
H177        H  0.20447367  0.78136712  0.16784272     0.05980
C178        C  0.50000213  0.79194311  0.17180056     0.03020
C179        C  0.47430014  0.78688860  0.15248685    -0.13130
C180        C  0.47408981  0.78683567  0.11439975     0.00520
C181        C  0.50013979  0.78881418  0.09625184    -0.11660
C182        C  0.02608278  0.79295283  0.11446412     0.03010
C183        C  0.02573058  0.79592750  0.15245174    -0.11080
H184        H  0.45461695  0.78327827  0.16708550     0.08600
H185        H  0.50023191  0.78697210  0.06690236     0.06130
H186        H  0.04536127  0.80075601  0.16698763     0.05980
Zr187      Zr  0.42748294  0.28694432  0.02267582     2.17510
O188        O  0.46827946  0.23488757  0.02637146    -0.51440
O189        O  0.45265126  0.36078303  0.02139972    -0.74650
O190        O  0.45198831  0.28368439  0.46602555    -0.81430
O191        O  0.42272473  0.28930392  0.12743047    -0.83180
O192        O  0.42264214  0.28339880  0.41757126    -0.78800
O193        O  0.45215338  0.28496029  0.07910745    -0.90440
O194        O  0.42421186  0.42516211  0.02068434    -0.76400
O195        O  0.40311094  0.33752738  0.48207963    -0.85890
O196        O  0.40288520  0.33978851  0.06149123    -0.85580
O197        O  0.40110346  0.23354008  0.48547820    -0.72340
O198        O  0.40080651  0.23599243  0.06125444    -0.84470
Zr199      Zr  0.32236860  0.28788919  0.02252254     2.26420
Zr200      Zr  0.37497832  0.28500462  0.44546230     2.06270
Zr201      Zr  0.37489556  0.28957206  0.09976284     2.10050
Zr202      Zr  0.37751631  0.38982787  0.02096340     1.78760
O203        O  0.37518875  0.22665654  0.14518981    -0.93280
O204        O  0.37794700  0.44275768  0.46855414    -0.41090
O205        O  0.34898414  0.34086016  0.05961112    -0.77720
O206        O  0.34903434  0.33872947  0.48377403    -0.96410
O207        O  0.34683179  0.23506915  0.48369598    -0.89710
O208        O  0.34706638  0.23736029  0.06293855    -0.92550
C209        C  0.44859287  0.40577997  0.02117892     1.01200
C210        C  0.44763708  0.28723756  0.11332489     1.14130
C211        C  0.44753133  0.28285179  0.43176514     1.04910
O212        O  0.37414306  0.34667829  0.39905736    -0.94710
O213        O  0.32706143  0.28487256  0.41798340    -0.90450
O214        O  0.29746818  0.28531590  0.46628088    -0.83600
C215        C  0.30208988  0.28483127  0.43204361     1.11550
O216        O  0.41496943  0.13645461  0.02399856    -0.96680
Zr217      Zr  0.37239156  0.18490483  0.02400218     1.88940
O218        O  0.29672602  0.21429028  0.02427087    -0.73330
O219        O  0.37467869  0.22003729  0.40158058    -0.52590
O220        O  0.36965070  0.13110033  0.47210914    -0.97270
O221        O  0.37242072  0.12936468  0.07488040    -0.54490
O222        O  0.32553507  0.15020107  0.02571925    -0.73850
C223        C  0.30106099  0.16932464  0.02566694     0.98500
O224        O  0.28453580  0.34635774  0.02125219    -0.62670
O225        O  0.37390871  0.35370872  0.14432064    -0.57470
O226        O  0.29737893  0.29153026  0.07866699    -0.94150
O227        O  0.32694747  0.29211511  0.12703090    -0.92580
O228        O  0.37940128  0.44597251  0.07139294    -0.92930
O229        O  0.33585648  0.44036927  0.02278925    -0.91720
C230        C  0.30199309  0.29258006  0.11291224     1.17340
H231        H  0.41558947  0.35865734  0.07609992     0.33280
H232        H  0.33662242  0.35787264  0.46901049     0.44140
H233        H  0.33436095  0.21941828  0.07816805     0.37660
H234        H  0.41361821  0.21341163  0.47161529     0.34140
H235        H  0.38257377  0.47444400  0.47872602     0.25930
H236        H  0.37993147  0.23507022  0.37820191     0.31870
H237        H  0.36280923  0.10063101  0.48231447     0.37780
H238        H  0.38407166  0.47689964  0.06001865     0.32240
H239        H  0.37940245  0.33847332  0.16752607     0.31110
H240        H  0.37355643  0.24353184  0.16874680     0.32790
H241        H  0.36453261  0.09949085  0.06484702     0.31760
H242        H  0.32542062  0.43318077  0.00013492     0.35760
H243        H  0.28918014  0.36922487  0.04086284     0.28490
H244        H  0.48420977  0.25554458  0.01926804     0.32730
H245        H  0.40851137  0.10318066  0.02106290     0.35580
H246        H  0.39012641  0.37419782  0.13793549     0.28190
H247        H  0.28737815  0.36475796  0.99860676     0.41060
H248        H  0.39034688  0.36744382  0.40500215     0.31110
H249        H  0.39493098  0.43350666  0.45463996     0.38730
H250        H  0.35770676  0.14129337  0.09162720     0.30580
H251        H  0.39112683  0.20017344  0.40809070     0.30650
H252        H  0.46620883  0.21189048  0.00612737     0.30910
C253        C  0.24997640  0.29076296  0.35184490     0.03020
C254        C  0.27573986  0.28655897  0.37110078    -0.13130
C255        C  0.27589923  0.28533486  0.40919022     0.00520
C256        C  0.24980479  0.28573358  0.42729776    -0.11660
C257        C  0.22384989  0.28991720  0.40912670     0.03010
C258        C  0.22418300  0.29337671  0.37115774    -0.11080
H259        H  0.29547845  0.28449432  0.35644352     0.08600
H260        H  0.24969354  0.28283251  0.45659818     0.06130
H261        H  0.20452718  0.29765130  0.35658254     0.05980
Zr262      Zr  0.17766498  0.28768292  0.02240851     2.17510
O263        O  0.21923326  0.33791260  0.01762402    -0.51440
O264        O  0.20294834  0.21366189  0.02530986    -0.74650
O265        O  0.20193985  0.29450715  0.07901661    -0.81430
O266        O  0.17271426  0.28752300  0.41764874    -0.83180
O267        O  0.17263235  0.29356928  0.12746202    -0.78800
O268        O  0.20212318  0.29202575  0.46599108    -0.90440
O269        O  0.17444504  0.14932439  0.02723168    -0.76400
O270        O  0.15339385  0.23685974  0.06296173    -0.85890
O271        O  0.15325484  0.23460941  0.48351823    -0.85580
O272        O  0.15104173  0.34088683  0.05947029    -0.72340
O273        O  0.15073348  0.33829737  0.48383443    -0.84470
Zr274      Zr  0.07234086  0.28562642  0.02248992     2.26420
Zr275      Zr  0.12505149  0.28915307  0.09949224     2.06270
Zr276      Zr  0.12493815  0.28457282  0.44530267     2.10050
Zr277      Zr  0.12789232  0.18441377  0.02401916     1.78760
O278        O  0.12375577  0.34757915  0.39996958    -0.93280
O279        O  0.12633309  0.13124958  0.07625372    -0.41090
O280        O  0.09918261  0.23303929  0.48542045    -0.77720
O281        O  0.09926977  0.23511733  0.06117763    -0.96410
O282        O  0.09673681  0.33871182  0.06122522    -0.89710
O283        O  0.09682085  0.33649210  0.48206188    -0.92550
C284        C  0.19882944  0.16867125  0.02714714     1.01200
C285        C  0.19760025  0.29020763  0.43178012     1.14130
C286        C  0.19749035  0.29534877  0.11325514     1.04910
O287        O  0.12569150  0.22747681  0.14590782    -0.94710
O288        O  0.07716294  0.28701481  0.12702433    -0.90450
O289        O  0.04751997  0.28572930  0.07877240    -0.83600
C290        C  0.05217859  0.28620679  0.11299228     1.11550
O291        O  0.16471481  0.43770901  0.01891046    -0.96680
Zr292      Zr  0.12218174  0.38914773  0.02093906     1.88940
O293        O  0.04680207  0.35960943  0.02246891    -0.73330
O294        O  0.12323515  0.35412800  0.14328950    -0.52590
O295        O  0.12131789  0.44312006  0.07282374    -0.97270
O296        O  0.12028233  0.44450314  0.46996391    -0.54490
O297        O  0.07545512  0.42394553  0.02199177    -0.73850
C298        C  0.05102853  0.40470538  0.02258150     0.98500
O299        O  0.03429504  0.22736823  0.02312913    -0.62670
O300        O  0.12544830  0.22064604  0.40054088    -0.57470
O301        O  0.04743769  0.28108103  0.46632165    -0.94150
O302        O  0.07702870  0.27962128  0.41802199    -0.92580
O303        O  0.13194465  0.12872501  0.47351149    -0.92930
O304        O  0.08654944  0.13328301  0.02015503    -0.91720
C305        C  0.05206536  0.27922523  0.43211119     1.17340
H306        H  0.16612202  0.21594562  0.46901098     0.33280
H307        H  0.08697167  0.21569252  0.07589731     0.44140
H308        H  0.08395252  0.35424089  0.46693340     0.37660
H309        H  0.16339331  0.36135631  0.07330845     0.34140
H310        H  0.13193626  0.09981710  0.06647024     0.25930
H311        H  0.12874619  0.33947882  0.16671035     0.31870
H312        H  0.11428988  0.47362906  0.06292282     0.37780
H313        H  0.13609901  0.09769153  0.48503944     0.32240
H314        H  0.13055460  0.23637836  0.37738013     0.31110
H315        H  0.12106454  0.33078524  0.37653797     0.32790
H316        H  0.11316790  0.47461379  0.48051044     0.31760
H317        H  0.07479749  0.14203570  0.04135621     0.35760
H318        H  0.03889235  0.20466204  0.00339734     0.28490
H319        H  0.23481367  0.31718006  0.02577871     0.32730
H320        H  0.15828568  0.47105516  0.02134190     0.35580
H321        H  0.14214305  0.20125272  0.40682968     0.28190
H322        H  0.03698250  0.20859852  0.04562733     0.41060
H323        H  0.14280216  0.20861562  0.14058726     0.31110
H324        H  0.14241049  0.14117449  0.09163788     0.38730
H325        H  0.10470055  0.43294799  0.45440168     0.30580
H326        H  0.13926877  0.37498096  0.13681687     0.30650
H327        H  0.21729441  0.36236657  0.03686393     0.30910
C328        C  0.49997127  0.27952642  0.35182770     0.03020
C329        C  0.47410996  0.28212200  0.37099317    -0.13130
C330        C  0.47377968  0.28090710  0.40908428     0.00520
C331        C  0.99977380  0.27849785  0.42735490    -0.11660
C332        C  0.02588034  0.27767932  0.40928177     0.03010
C333        C  0.02574364  0.27697094  0.37119854    -0.11080
H334        H  0.45445329  0.28509597  0.35622926     0.08600
H335        H  0.99970724  0.27787380  0.45670948     0.06130
H336        H  0.04551629  0.27508778  0.35659563     0.05980
C337        C  0.24985862  0.29520440  0.19319090     0.03020
C338        C  0.27563049  0.29251725  0.17381002    -0.13130
C339        C  0.27582969  0.29435610  0.13574155     0.00520
C340        C  0.24977962  0.29683631  0.11764184    -0.11660
C341        C  0.22375031  0.29734386  0.13588452     0.03010
C342        C  0.22403018  0.29809748  0.17395136    -0.11080
H343        H  0.29534255  0.28902120  0.18837585     0.08600
H344        H  0.24975377  0.29762691  0.08829425     0.06130
H345        H  0.20429796  0.30022258  0.18861934     0.05980
C346        C  0.00005207  0.28354552  0.19325979     0.03020
C347        C  0.47416853  0.28627048  0.17413537    -0.13130
C348        C  0.47388509  0.28754175  0.13605251     0.00520
C349        C  0.99991949  0.28876153  0.11781667    -0.11660
C350        C  0.02600490  0.28596150  0.13584416     0.03010
C351        C  0.02583924  0.28245378  0.17383758    -0.11080
H352        H  0.45444364  0.28713633  0.18889798     0.08600
H353        H  0.99986508  0.29180761  0.08852206     0.06130
H354        H  0.04559364  0.27926935  0.18835497     0.05980
C355        C  0.22487274  0.93534047  0.00002429     0.03020
C356        C  0.25047192  0.91270490  0.49449713    -0.13130
C357        C  0.27594706  0.93546311  0.00124633     0.00520
C358        C  0.27587996  0.98428261  0.00927166    -0.11660
C359        C  0.25020078  0.01043868  0.01108379     0.03010
C360        C  0.22464344  0.98425080  0.00756474    -0.11080
H361        H  0.25056073  0.87557598  0.48661291     0.08600
H362        H  0.29596209  0.00044730  0.01486656     0.06130
H363        H  0.20434127  0.00041405  0.01129466     0.05980
C364        C  0.27553901  0.13912761  0.02714852     0.03020
C365        C  0.25003225  0.16172505  0.03379126    -0.13130
C366        C  0.22447788  0.13873112  0.02838978     0.00520
C367        C  0.22441795  0.08968453  0.02128662    -0.11660
C368        C  0.25007660  0.06374260  0.01793418     0.03010
C369        C  0.27563851  0.09020859  0.01956390    -0.11080
H370        H  0.25002342  0.19901849  0.04123816     0.08600
H371        H  0.20417108  0.07326978  0.01758571     0.06130
H372        H  0.29576051  0.07422850  0.01397707     0.05980
C373        C  0.50009694  0.28032906  0.31119866    -0.05450
C374        C  0.48470709  0.24601425  0.29119337    -0.02570
C375        C  0.48478548  0.24688064  0.25281179     0.02420
C376        C  0.00018126  0.28218374  0.23389779    -0.05450
C377        C  0.01559583  0.31646029  0.25393159    -0.02560
C378        C  0.01556864  0.31551588  0.29228876     0.02420
C379        C  0.46919082  0.20896296  0.31001480     0.37070
C380        C  0.03102680  0.35369264  0.23519419     0.37060
C381        C  0.03099222  0.35174450  0.31222489     0.35480
C382        C  0.46945972  0.21054928  0.23287047     0.35480
N383        N  0.04347114  0.38042292  0.32808303    -0.39340
N384        N  0.45706836  0.18175324  0.21702121    -0.39340
N385        N  0.04351512  0.38317554  0.22029671    -0.38780
N386        N  0.45664673  0.17960857  0.32498326    -0.38790
C387        C  0.24993639  0.29207033  0.31119767    -0.05450
C388        C  0.23352692  0.25913307  0.29116127    -0.02570
C389        C  0.23353831  0.26010991  0.25280895     0.02420
C390        C  0.24988273  0.29416417  0.23385901    -0.05450
C391        C  0.26626104  0.32716223  0.25389969    -0.02560
C392        C  0.26630368  0.32609498  0.29227546     0.02420
C393        C  0.21698473  0.22325384  0.30988029     0.37070
C394        C  0.28269410  0.36316618  0.23517555     0.37060
C395        C  0.28278912  0.36098186  0.31219169     0.35480
C396        C  0.21713106  0.22503063  0.23296874     0.35480
N397        N  0.29613806  0.38857314  0.32799666    -0.39340
N398        N  0.20382613  0.19732045  0.21722331    -0.39340
N399        N  0.29600558  0.39163601  0.22031176    -0.38780
N400        N  0.20357040  0.19492898  0.32475116    -0.38790
C401        C  0.50003805  0.79264949  0.21250276    -0.05450
C402        C  0.48249117  0.82463628  0.23180681    -0.02570
C403        C  0.48252167  0.82517601  0.27018875     0.02420
C404        C  0.50005848  0.79365766  0.28993354    -0.05450
C405        C  0.01758986  0.76164283  0.27060028    -0.02560
C406        C  0.01761468  0.76120718  0.23224029     0.02420
C407        C  0.46471159  0.85802708  0.21232715     0.37070
C408        C  0.03529581  0.72804259  0.28999588     0.37060
C409        C  0.03544916  0.72735437  0.21324831     0.35480
C410        C  0.46480347  0.85918401  0.28918209     0.35480
N411        N  0.04994565  0.70073401  0.19820711    -0.39340
N412        N  0.45041406  0.88597749  0.30421509    -0.39340
N413        N  0.04968823  0.70160296  0.30534685    -0.38780
N414        N  0.45028027  0.88433154  0.19690237    -0.38790
C415        C  0.24991600  0.78171556  0.28986285    -0.05450
C416        C  0.26047470  0.82109748  0.27029726    -0.02650
C417        C  0.26051264  0.82065464  0.23192784     0.02420
C418        C  0.25001323  0.78080086  0.21278041    -0.05450
C419        C  0.23946421  0.74138922  0.23234698    -0.02560
C420        C  0.23940918  0.74185494  0.27074205     0.02420
C421        C  0.27075005  0.86260569  0.28968643     0.37070
C422        C  0.22926283  0.69983681  0.21295810     0.37060
C423        C  0.22913076  0.70081319  0.29061502     0.35480
C424        C  0.27078697  0.86175130  0.21211017     0.35480
N425        N  0.22093418  0.66811491  0.30651567    -0.39340
N426        N  0.27899851  0.89446474  0.19624216    -0.39340
N427        N  0.22112272  0.66671385  0.19746576    -0.38780
N428        N  0.27895809  0.89565671  0.30520707    -0.38790
C429        C  0.47469390  0.63902524  0.99759715     0.03020
C430        C  0.47469716  0.59007839  0.50485692    -0.13130
C431        C  0.00031398  0.56376370  0.50617372     0.00520
C432        C  0.02592409  0.58989933  0.50294966    -0.11660
C433        C  0.02577871  0.63906650  0.99631146     0.03010
C434        C  0.50016317  0.66192315  0.99121295    -0.11080
H435        H  0.45459926  0.57397217  0.51036495     0.08600
H436        H  0.04619455  0.57345964  0.50629162     0.06130
H437        H  0.50009402  0.69928733  0.98406578     0.05980
C438        C  0.47435876  0.43542653  0.52161020     0.03020
C439        C  0.47453112  0.48425964  0.51398086    -0.13130
C440        C  0.00023693  0.51036111  0.51245283     0.00520
C441        C  0.02577597  0.48406915  0.51578422    -0.11660
C442        C  0.02545912  0.43498205  0.52278821     0.03010
C443        C  0.99977479  0.41240139  0.52799846    -0.11080
H444        H  0.45446459  0.50047667  0.50852170     0.08600
H445        H  0.04609654  0.50035533  0.51241622     0.06130
H446        H  0.99960237  0.37517253  0.53550801     0.05980
Zr447      Zr  0.32229932  0.78608330  0.50115627     2.17510
O448        O  0.28091467  0.73532431  0.99775687    -0.51440
O449        O  0.29739249  0.86045943  0.50179215    -0.74650
O450        O  0.29799474  0.78270887  0.55804400    -0.81430
O451        O  0.32724894  0.78548591  0.89623862    -0.83180
O452        O  0.32735151  0.78335965  0.60646860    -0.78800
O453        O  0.29783190  0.78166828  0.94458768    -0.90440
O454        O  0.32598904  0.92470886  0.50223705    -0.76400
O455        O  0.34678302  0.83724958  0.54134475    -0.85890
O456        O  0.34699392  0.83818506  0.96188719    -0.85580
O457        O  0.34874980  0.73318567  0.53863492    -0.72340
O458        O  0.34908910  0.73444272  0.96308377    -0.84470
Zr459      Zr  0.42746437  0.78713022  0.50124413     2.26420
Zr460      Zr  0.37491167  0.78522326  0.57833091     2.06270
Zr461      Zr  0.37499953  0.78728440  0.92402813     2.10050
Zr462      Zr  0.37244782  0.88887805  0.50202200     1.78760
O463        O  0.37493009  0.72402754  0.87876603    -0.93280
O464        O  0.37221738  0.94262385  0.55405516    -0.41090
O465        O  0.40093221  0.83937199  0.96367529    -0.77720
O466        O  0.40084472  0.83846528  0.53966934    -0.96410
O467        O  0.40308468  0.73481114  0.54048436    -0.89710
O468        O  0.40285336  0.73580624  0.96124207    -0.92550
C469        C  0.30156969  0.90548892  0.50180152     1.01200
C470        C  0.30234722  0.78320925  0.91033762     1.14130
C471        C  0.30245730  0.78240319  0.59231798     1.04910
O472        O  0.37554808  0.84768926  0.62423317    -0.94710
O473        O  0.42288329  0.78578291  0.60571151    -0.90450
O474        O  0.45244156  0.78535924  0.55738259    -0.83600
C475        C  0.44784789  0.78557109  0.59161694     1.11550
O476        O  0.33514155  0.63507022  0.00097003    -0.96680
Zr477      Zr  0.37755860  0.68392199  0.50058375     1.88940
O478        O  0.45324287  0.71387945  0.50011556    -0.73330
O479        O  0.37554877  0.72092576  0.62265817    -0.52590
O480        O  0.38036498  0.63105575  0.55292312    -0.97270
O481        O  0.37755214  0.62762726  0.95009382    -0.54490
O482        O  0.42456853  0.64957297  0.49900485    -0.73850
C483        C  0.44901654  0.66889666  0.49896862     0.98500
O484        O  0.46520483  0.84584371  0.50200885    -0.62670
O485        O  0.37575526  0.85112165  0.87931926    -0.57470
O486        O  0.45254129  0.78958126  0.94515966    -0.94150
O487        O  0.42299418  0.78918615  0.89677948    -0.92580
O488        O  0.37053710  0.94419109  0.95116209    -0.92930
O489        O  0.41425065  0.93917439  0.99968798    -0.91720
C490        C  0.44794850  0.78987935  0.91091141     1.17340
H491        H  0.33428259  0.85674972  0.94711035     0.33280
H492        H  0.41326021  0.85785378  0.55429136     0.44140
H493        H  0.41556691  0.71764801  0.94616007     0.37660
H494        H  0.33626005  0.71320063  0.55263929     0.34140
H495        H  0.36756562  0.97415365  0.54369289     0.25930
H496        H  0.37023348  0.73622079  0.64593690     0.31870
H497        H  0.38736927  0.60051682  0.54299541     0.37780
H498        H  0.36616750  0.97539108  0.96234060     0.32240
H499        H  0.37091309  0.83545455  0.85600890     0.31110
H500        H  0.37719537  0.74066725  0.85522695     0.32790
H501        H  0.38558824  0.59800204  0.96028214     0.31760
H502        H  0.42450899  0.93274305  0.52257776     0.35760
H503        H  0.46053056  0.86836704  0.98222895     0.28490
H504        H  0.26528879  0.75639154  0.50536706     0.32730
H505        H  0.34164481  0.60192341  0.50419297     0.35580
H506        H  0.35911149  0.87089257  0.88515495     0.28190
H507        H  0.46235629  0.86458568  0.52451902     0.41060
H508        H  0.35913952  0.86795345  0.61830794     0.31110
H509        H  0.35528538  0.93356952  0.56814539     0.38730
H510        H  0.39215599  0.63947820  0.93316555     0.30580
H511        H  0.35919741  0.70070814  0.61629044     0.30650
H512        H  0.28291636  0.71195993  0.51771051     0.30910
C513        C  0.24993692  0.78229156  0.83035128     0.03020
C514        C  0.27583439  0.78187244  0.84945046    -0.13130
C515        C  0.27610388  0.78320260  0.88755786     0.00520
C516        C  0.25005301  0.78510986  0.90576674    -0.11660
C517        C  0.22392726  0.78509350  0.88764911     0.03010
C518        C  0.22408305  0.78376137  0.84952070    -0.11080
H519        H  0.29551431  0.78055973  0.83459425     0.08600
H520        H  0.25012270  0.78681375  0.93511981     0.06130
H521        H  0.20436437  0.78406328  0.83471231     0.05980
Zr522      Zr  0.07235627  0.78862786  0.50136350     2.17510
O523        O  0.03058951  0.83840426  0.50580029    -0.51440
O524        O  0.04722795  0.71423075  0.49900483    -0.74650
O525        O  0.04806965  0.79477337  0.94479732    -0.81430
O526        O  0.07720916  0.79044363  0.60605556    -0.83180
O527        O  0.07731829  0.79266580  0.89632429    -0.78800
O528        O  0.04785786  0.79437735  0.55764904    -0.90440
O529        O  0.07575163  0.64995943  0.49749097    -0.76400
O530        O  0.09665716  0.73720275  0.96121245    -0.85890
O531        O  0.09674838  0.73624736  0.54067321    -0.85580
O532        O  0.09899856  0.84133802  0.96391935    -0.72340
O533        O  0.09929538  0.83998540  0.53948139    -0.84470
Zr534      Zr  0.17768306  0.78663833  0.50131418     2.26420
Zr535      Zr  0.12494185  0.78901608  0.92425466     2.06270
Zr536      Zr  0.12501865  0.78696428  0.57850516     2.10050
Zr537      Zr  0.12217629  0.68547089  0.50056219     1.78760
O538        O  0.12596920  0.85045120  0.62356417    -0.93280
O539        O  0.12385635  0.63150907  0.94871008    -0.41090
O540        O  0.15081753  0.73474215  0.53886013    -0.77720
O541        O  0.15075951  0.73560381  0.96294606    -0.96410
O542        O  0.15333613  0.83908766  0.96215547    -0.89710
O543        O  0.15319438  0.83817765  0.54130292    -0.92550
C544        C  0.05136285  0.66920390  0.49744641     1.01200
C545        C  0.05234140  0.79307703  0.59186941     1.14130
C546        C  0.05247643  0.79474346  0.91055805     1.04910
O547        O  0.12440899  0.72653985  0.87835304    -0.94710
O548        O  0.17276376  0.78680719  0.89655673    -0.90450
O549        O  0.20240685  0.78635085  0.94481646    -0.83600
C550        C  0.19775314  0.78624006  0.91056647     1.11550
O551        O  0.08553391  0.93905213  0.50367331    -0.96680
Zr552      Zr  0.12793816  0.89021689  0.50201530     1.88940
O553        O  0.20344912  0.86018892  0.50081004    -0.73330
O554        O  0.12653416  0.85333177  0.87999003    -0.52590
O555        O  0.12895568  0.94332790  0.94971635    -0.97270
O556        O  0.12993140  0.94645633  0.55251004    -0.54490
O557        O  0.17484238  0.92455097  0.50077085    -0.73850
C558        C  0.19925138  0.90523672  0.50035675     0.98500
O559        O  0.21550265  0.72809350  0.50108436    -0.62670
O560        O  0.12458162  0.72340252  0.62346164    -0.57470
O561        O  0.20249128  0.78357576  0.55773668    -0.94150
O562        O  0.17287429  0.78327634  0.60603384    -0.92580
O563        O  0.11808259  0.63051257  0.55144364    -0.92930
O564        O  0.16360956  0.63469779  0.50487532    -0.91720
C565        C  0.19785060  0.78264842  0.59199406     1.17340
H566        H  0.08387055  0.71780751  0.55531668     0.33280
H567        H  0.16304970  0.71598130  0.94835182     0.44140
H568        H  0.16605796  0.85621245  0.55628562     0.37660
H569        H  0.08664465  0.86158468  0.94994953     0.34140
H570        H  0.11827949  0.60019895  0.95870740     0.25930
H571        H  0.12087956  0.83832881  0.85672723     0.31870
H572        H  0.13615383  0.97390789  0.95935973     0.37780
H573        H  0.11410895  0.59924642  0.54011176     0.32240
H574        H  0.11972712  0.73937712  0.64664005     0.31110
H575        H  0.12729160  0.83380220  0.64721850     0.32790
H576        H  0.13718964  0.97630545  0.54172741     0.31760
H577        H  0.17515359  0.64256514  0.98327452     0.35760
H578        H  0.21080362  0.70574050  0.52097510     0.28490
H579        H  0.01509987  0.81754246  0.49746996     0.32730
H580        H  0.09206685  0.97231094  0.00091904     0.35580
H581        H  0.10775108  0.70414209  0.61745537     0.28190
H582        H  0.21277218  0.70906565  0.97869071     0.41060
H583        H  0.10726461  0.70777963  0.88373136     0.31110
H584        H  0.10778347  0.64112110  0.93323050     0.38730
H585        H  0.14543096  0.93504049  0.56823502     0.30580
H586        H  0.11054805  0.87427550  0.88646936     0.30650
H587        H  0.03257073  0.86285706  0.98664373     0.30910
C588        C  0.50007301  0.79407852  0.83065512     0.03020
C589        C  0.47435190  0.79005541  0.85004821    -0.13130
C590        C  0.47413894  0.79138799  0.88812112     0.00520
C591        C  0.50018441  0.79369881  0.90624520    -0.11660
C592        C  0.02617538  0.79589449  0.88799349     0.03010
C593        C  0.02584462  0.79785854  0.84996861    -0.11080
H594        H  0.45465751  0.78605242  0.83551719     0.08600
H595        H  0.50023791  0.79323569  0.93559947     0.06130
H596        H  0.04553180  0.80159306  0.83539604     0.05980
C597        C  0.25003213  0.78046018  0.67227714     0.03020
C598        C  0.27593834  0.78055418  0.65318994    -0.13130
C599        C  0.27620701  0.78113661  0.61506852     0.00520
C600        C  0.25014345  0.78113020  0.59683132    -0.11660
C601        C  0.22402104  0.78124534  0.61492458     0.03010
C602        C  0.22417677  0.78091493  0.65306430    -0.11080
H603        H  0.29562795  0.78040130  0.66806710     0.08600
H604        H  0.25018843  0.78152208  0.56747701     0.06130
H605        H  0.20445205  0.78137149  0.66784836     0.05980
C606        C  0.49998105  0.79193730  0.67179946     0.03020
C607        C  0.47427721  0.78688536  0.65248852    -0.13130
C608        C  0.47406425  0.78683759  0.61440076     0.00520
C609        C  0.50011327  0.78882106  0.59625052    -0.11660
C610        C  0.02605722  0.79295622  0.61446083     0.03010
C611        C  0.02570756  0.79592566  0.65244795    -0.11080
H612        H  0.45459522  0.78327271  0.66708950     0.08600
H613        H  0.50020413  0.78698531  0.56690078     0.06130
H614        H  0.04533932  0.80075282  0.66698174     0.05980
Zr615      Zr  0.42747688  0.28692952  0.52267629     2.17510
O616        O  0.46827040  0.23486612  0.52637045    -0.51440
O617        O  0.45264506  0.36077015  0.52140083    -0.74650
O618        O  0.45199388  0.28369612  0.96602505    -0.81430
O619        O  0.42271928  0.28929378  0.62743070    -0.83180
O620        O  0.42264762  0.28340948  0.91757088    -0.78800
O621        O  0.45214792  0.28494866  0.57910772    -0.90440
O622        O  0.42420385  0.42514728  0.52068441    -0.76400
O623        O  0.40311715  0.33754213  0.98207887    -0.85890
O624        O  0.40287891  0.33977367  0.56149141    -0.85580
O625        O  0.40111028  0.23355492  0.98547723    -0.72340
O626        O  0.40079966  0.23597724  0.56125420    -0.84470
Zr627      Zr  0.32236267  0.28787718  0.52252271     2.26420
Zr628      Zr  0.37498404  0.28501905  0.94546204     2.06270
Zr629      Zr  0.37488977  0.28955735  0.59976331     2.10050
Zr630      Zr  0.37750958  0.38981291  0.52096389     1.78760
O631        O  0.37518312  0.22663926  0.64518820    -0.93280
O632        O  0.37795374  0.44277224  0.96855340    -0.41090
O633        O  0.34897820  0.34084619  0.55961233    -0.77720
O634        O  0.34904021  0.33874322  0.98377453    -0.96410
O635        O  0.34683877  0.23508226  0.98369610    -0.89710
O636        O  0.34705939  0.23734718  0.56293906    -0.92550
C637        C  0.44858520  0.40576709  0.52117929     1.01200
C638        C  0.44763168  0.28722831  0.61332514     1.14130
C639        C  0.44753678  0.28286169  0.93176476     1.04910
O640        O  0.37414855  0.34669493  0.89905880    -0.94710
O641        O  0.32706705  0.28488317  0.91798283    -0.90450
O642        O  0.29747403  0.28532686  0.96628048    -0.83600
C643        C  0.30209550  0.28484094  0.93204312     1.11550
O644        O  0.41495916  0.13643554  0.52399830    -0.96680
Zr645      Zr  0.37238317  0.18489049  0.52400239     1.88940
O646        O  0.29671762  0.21428218  0.52427172    -0.73330
O647        O  0.37468368  0.22005346  0.90157884    -0.52590
O648        O  0.36966101  0.13111369  0.97210938    -0.97270
O649        O  0.37241115  0.12934983  0.57488030    -0.54490
O650        O  0.32552483  0.15019073  0.52572042    -0.73850
C651        C  0.30105119  0.16931643  0.52566835     0.98500
O652        O  0.28453187  0.34634927  0.52125186    -0.62670
O653        O  0.37390303  0.35369126  0.64432341    -0.57470
O654        O  0.29737304  0.29152103  0.57866678    -0.94150
O655        O  0.32694170  0.29210545  0.62703065    -0.92580
O656        O  0.37939578  0.44595798  0.57139306    -0.92930
O657        O  0.33584919  0.44035285  0.52279069    -0.91720
C658        C  0.30198736  0.29257211  0.61291193     1.17340
H659        H  0.41558306  0.35864287  0.57610000     0.33280
H660        H  0.33662803  0.35788609  0.96901112     0.44140
H661        H  0.33435356  0.21940602  0.57816860     0.37660
H662        H  0.41362508  0.21342673  0.97161418     0.34140
H663        H  0.38258036  0.47445869  0.97872518     0.25930
H664        H  0.37993801  0.23508661  0.87820083     0.31870
H665        H  0.36282134  0.10064344  0.98231510     0.37780
H666        H  0.38406474  0.47688539  0.56001826     0.32240
H667        H  0.37939941  0.33845546  0.66752764     0.31110
H668        H  0.37355164  0.24351336  0.66874580     0.32790
H669        H  0.36452190  0.09947686  0.56484692     0.31760
H670        H  0.32541549  0.43316976  0.50013370     0.35760
H671        H  0.28917707  0.36921645  0.54086214     0.28490
H672        H  0.48420146  0.25552058  0.51926572     0.32730
H673        H  0.40849985  0.10316239  0.52106186     0.35580
H674        H  0.39011911  0.37418324  0.63793676     0.28190
H675        H  0.28737459  0.36474863  0.49860611     0.41060
H676        H  0.39035429  0.36745714  0.90500161     0.31110
H677        H  0.39493781  0.43352130  0.95463940     0.38730
H678        H  0.35769780  0.14127975  0.59162749     0.30580
H679        H  0.39113075  0.20018748  0.90808970     0.30650
H680        H  0.46619765  0.21186938  0.50612648     0.30910
C681        C  0.24998036  0.29076313  0.85184486     0.03020
C682        C  0.27574444  0.28656307  0.87110022    -0.13130
C683        C  0.27590452  0.28534094  0.90918987     0.00520
C684        C  0.24981026  0.28573701  0.92729792    -0.11660
C685        C  0.22385491  0.28991605  0.90912727     0.03010
C686        C  0.22418729  0.29337470  0.87115842    -0.11080
H687        H  0.29548287  0.28449998  0.85644249     0.08600
H688        H  0.24969949  0.28283723  0.95659840     0.06130
H689        H  0.20453101  0.29764677  0.85658380     0.05980
Zr690      Zr  0.17765932  0.28769302  0.52240824     2.17510
O691        O  0.21922818  0.33792109  0.51762335    -0.51440
O692        O  0.20294078  0.21366904  0.52531196    -0.74650
O693        O  0.20193422  0.29451658  0.57901669    -0.81430
O694        O  0.17271942  0.28751620  0.91764948    -0.83180
O695        O  0.17262684  0.29357831  0.62746215    -0.78800
O696        O  0.20212846  0.29201971  0.96599165    -0.90440
O697        O  0.17443546  0.14933385  0.52723434    -0.76400
O698        O  0.15338723  0.23687125  0.56296140    -0.85890
O699        O  0.15326117  0.23459905  0.98351799    -0.85580
O700        O  0.15103610  0.34089901  0.55946875    -0.72340
O701        O  0.15073905  0.33828636  0.98383462    -0.84470
Zr702      Zr  0.07233592  0.28563782  0.52248924     2.26420
Zr703      Zr  0.12504605  0.28916632  0.59949174     2.06270
Zr704      Zr  0.12494334  0.28456194  0.94530329     2.10050
Zr705      Zr  0.12788470  0.18442567  0.52401937     1.78760
O706        O  0.12376081  0.34756739  0.89996950    -0.93280
O707        O  0.12632301  0.13126122  0.57625366    -0.41090
O708        O  0.09918858  0.23302780  0.98542161    -0.77720
O709        O  0.09926382  0.23513000  0.56117830    -0.96410
O710        O  0.09673106  0.33872437  0.56122445    -0.89710
O711        O  0.09682636  0.33648083  0.98206323    -0.92550
C712        C  0.19882024  0.16867864  0.52715002     1.01200
C713        C  0.19760540  0.29020262  0.93178077     1.14130
C714        C  0.19748487  0.29535678  0.61325533     1.04910
O715        O  0.12568623  0.22749383  0.64591021    -0.94710
O716        O  0.07715755  0.28702400  0.62702318    -0.90450
O717        O  0.04751455  0.28574229  0.57877119    -0.83600
C718        C  0.05217324  0.28621669  0.61299105     1.11550
O719        O  0.16470786  0.43772324  0.51891221    -0.96680
Zr720      Zr  0.12217539  0.38916016  0.52093762     1.88940
O721        O  0.04679699  0.35961854  0.52246504    -0.73330
O722        O  0.12323006  0.35414440  0.64328629    -0.52590
O723        O  0.12130857  0.44313283  0.57282203    -0.97270
O724        O  0.12028585  0.44449233  0.96996653    -0.54490
O725        O  0.07544744  0.42395747  0.52198702    -0.73850
C726        C  0.05102143  0.40471465  0.52257670     0.98500
O727        O  0.03429063  0.22737889  0.52313021    -0.62670
O728        O  0.12545333  0.22063378  0.90054266    -0.57470
O729        O  0.04744302  0.28107285  0.96632144    -0.94150
O730        O  0.07703397  0.27961459  0.91802173    -0.92580
O731        O  0.13195113  0.12871443  0.97351026    -0.92930
O732        O  0.08653994  0.13329952  0.52015334    -0.91720
C733        C  0.05207060  0.27921928  0.93211081     1.17340
H734        H  0.16612856  0.21593616  0.96901038     0.33280
H735        H  0.08696560  0.21570567  0.57589816     0.44140
H736        H  0.08395814  0.35423036  0.96693511     0.37660
H737        H  0.16338791  0.36136839  0.57330666     0.34140
H738        H  0.13192567  0.09982843  0.56647028     0.25930
H739        H  0.12873914  0.33949598  0.66670818     0.31870
H740        H  0.11428059  0.47364150  0.56292049     0.37780
H741        H  0.13610837  0.09768151  0.98503735     0.32240
H742        H  0.13055799  0.23636592  0.87738123     0.31110
H743        H  0.12107040  0.33077294  0.87653795     0.32790
H744        H  0.11317309  0.47460323  0.98051453     0.31760
H745        H  0.07479033  0.14204691  0.54135798     0.35760
H746        H  0.03888793  0.20467201  0.50339888     0.28490
H747        H  0.23480806  0.31718814  0.52577905     0.32730
H748        H  0.15827815  0.47106915  0.52134303     0.35580
H749        H  0.14214906  0.20124227  0.90683040     0.28190
H750        H  0.03697827  0.20861007  0.54562880     0.41060
H751        H  0.14279394  0.20862667  0.64058617     0.31110
H752        H  0.14240027  0.14118498  0.59163850     0.38730
H753        H  0.10470252  0.43293887  0.95440617     0.30580
H754        H  0.13926499  0.37499486  0.63681440     0.30650
H755        H  0.21728932  0.36237577  0.53686272     0.30910
C756        C  0.49997581  0.27952638  0.85182731     0.03020
C757        C  0.47411489  0.28212594  0.87099303    -0.13130
C758        C  0.47378492  0.28091290  0.90908401     0.00520
C759        C  0.99977901  0.27850074  0.92735446    -0.11660
C760        C  0.02588544  0.27767754  0.90928116     0.03010
C761        C  0.02574838  0.27696855  0.87119776    -0.11080
H762        H  0.45445821  0.28510169  0.85622933     0.08600
H763        H  0.99971249  0.27787797  0.95670903     0.06130
H764        H  0.04552076  0.27508281  0.85659446     0.05980
C765        C  0.24985405  0.29520544  0.69319082     0.03020
C766        C  0.27562543  0.29251443  0.67380950    -0.13130
C767        C  0.27582424  0.29435243  0.63574119     0.00520
C768        C  0.24977419  0.29683656  0.61764180    -0.11660
C769        C  0.22374503  0.29734801  0.63588481     0.03010
C770        C  0.22402536  0.29810119  0.67395185    -0.11080
H771        H  0.29533750  0.28901609  0.68837498     0.08600
H772        H  0.24974824  0.29762706  0.58829419     0.06130
H773        H  0.20429345  0.30022836  0.68862036     0.05980
C774        C  0.00004826  0.28354692  0.69325936     0.03020
C775        C  0.47416411  0.28626731  0.67413560    -0.13130
C776        C  0.47387992  0.28753759  0.63605255     0.00520
C777        C  0.99991400  0.28876203  0.61781610    -0.11660
C778        C  0.02599979  0.28596697  0.63584304     0.03010
C779        C  0.02583499  0.28245881  0.67383627    -0.11080
H780        H  0.45443942  0.28713024  0.68889873     0.08600
H781        H  0.99985906  0.29180766  0.58852145     0.06130
H782        H  0.04558987  0.27927709  0.68835293     0.05980
C783        C  0.22485027  0.93534306  0.50002338     0.03020
C784        C  0.25049508  0.91270335  0.99450071    -0.13130
C785        C  0.27592444  0.93546257  0.50124302     0.00520
C786        C  0.27585905  0.98428084  0.50927027    -0.11660
C787        C  0.25018113  0.01043910  0.51108373     0.03010
C788        C  0.22462256  0.98425362  0.50756533    -0.11080
H789        H  0.25058471  0.87557391  0.98661802     0.08600
H790        H  0.29594179  0.00044263  0.51486609     0.06130
H791        H  0.20432108  0.00041892  0.51129706     0.05980
C792        C  0.27552773  0.13912291  0.52715100     0.03020
C793        C  0.25002233  0.16172413  0.53379550    -0.13130
C794        C  0.22446676  0.13873476  0.52839326     0.00520
C795        C  0.22440364  0.08968843  0.52128900    -0.11660
C796        C  0.25006047  0.06374261  0.51793532     0.03010
C797        C  0.27562410  0.09020448  0.51956452    -0.11080
H798        H  0.25001544  0.19901721  0.54124353     0.08600
H799        H  0.20415593  0.07327660  0.51758771     0.06130
H800        H  0.29574510  0.07422218  0.51397558     0.05980
C801        C  0.50010034  0.28032819  0.81119833    -0.05450
C802        C  0.48470911  0.24601396  0.79119423    -0.02570
C803        C  0.48478510  0.24688108  0.75281264     0.02420
C804        C  0.00017908  0.28218535  0.73389746    -0.05450
C805        C  0.01559478  0.31646169  0.75393025    -0.02560
C806        C  0.01557072  0.31551548  0.79228741     0.02420
C807        C  0.46919362  0.20896284  0.81001692     0.37070
C808        C  0.03102376  0.35369569  0.73519204     0.37060
C809        C  0.03099605  0.35174281  0.81222264     0.35480
C810        C  0.46945896  0.21054902  0.73287257     0.35480
N811        N  0.04347633  0.38042017  0.82808013    -0.39340
N812        N  0.45706738  0.18175230  0.71702431    -0.39340
N813        N  0.04351056  0.38317993  0.72029397    -0.38780
N814        N  0.45665007  0.17960868  0.82498640    -0.38790
C815        C  0.24993885  0.29206973  0.81119751    -0.05450
C816        C  0.23352803  0.25913285  0.79116232    -0.02570
C817        C  0.23353625  0.26011147  0.75281001     0.02420
C818        C  0.24987951  0.29416593  0.73385886    -0.05450
C819        C  0.26625944  0.32716313  0.75389816    -0.02560
C820        C  0.26630460  0.32609515  0.79227391     0.02420
C821        C  0.21698763  0.22325222  0.80988241     0.37070
C822        C  0.28269179  0.36316673  0.73517257     0.37060
C823        C  0.28279087  0.36098235  0.81218867     0.35480
C824        C  0.21712702  0.22503382  0.73297087     0.35480
N825        N  0.29614040  0.38857397  0.82799245    -0.39340
N826        N  0.20382058  0.19732494  0.71722624    -0.39340
N827        N  0.29600276  0.39163619  0.72030761    -0.38780
N828        N  0.20357468  0.19492621  0.82475409    -0.38790
C829        C  0.50002352  0.79264081  0.71250158    -0.05450
C830        C  0.48248345  0.82463146  0.73181157    -0.02570
C831        C  0.48252853  0.82518081  0.77019335     0.02420
C832        C  0.50007191  0.79366584  0.78993215    -0.05450
C833        C  0.01759633  0.76164680  0.77059294    -0.02560
C834        C  0.01760665  0.76120171  0.73223295     0.02420
C835        C  0.46469601  0.85801636  0.71233802     0.37070
C836        C  0.03531007  0.72805245  0.78998247     0.37060
C837        C  0.03543307  0.72734273  0.71323465     0.35480
C838        C  0.46481868  0.85919581  0.78919250     0.35480
N839        N  0.04992308  0.70071752  0.69818802    -0.39340
N840        N  0.45043599  0.88599492  0.80423037    -0.39340
N841        N  0.04970877  0.70161739  0.80532823    -0.38780
N842        N  0.45025835  0.88431606  0.69691838    -0.38790
C843        C  0.24993119  0.78171185  0.78986393    -0.05450
C844        C  0.26048239  0.82109614  0.77029474    -0.02650
C845        C  0.26050508  0.82065842  0.73192528     0.02420
C846        C  0.24999831  0.78080699  0.71278141    -0.05450
C847        C  0.23945681  0.74139294  0.73235163    -0.02560
C848        C  0.23941677  0.74185375  0.77074676     0.02420
C849        C  0.27076522  0.86260176  0.78968052     0.37070
C850        C  0.22924812  0.69984296  0.71296618     0.37060
C851        C  0.22914542  0.70080984  0.79062326     0.35480
C852        C  0.27077166  0.86175780  0.71210419     0.35480
N853        N  0.22095450  0.66810992  0.80652680    -0.39340
N854        N  0.27897692  0.89447347  0.69623347    -0.39340
N855        N  0.22110213  0.66672186  0.69747667    -0.38780
N856        N  0.27897928  0.89565065  0.80519849    -0.38790
C857        C  0.97466596  0.63902108  0.49760817     0.03020
C858        C  0.97472181  0.59008384  0.00485029    -0.13130
C859        C  0.50033618  0.56376317  0.00616512     0.00520
C860        C  0.52594843  0.58989228  0.00293622    -0.11660
C861        C  0.52575106  0.63907381  0.49632721     0.03010
C862        C  0.00013427  0.66192563  0.49122944    -0.11080
H863        H  0.95462336  0.57398312  0.01036454     0.08600
H864        H  0.54621782  0.57344825  0.00627704     0.06130
H865        H  0.00006343  0.69929052  0.48408468     0.05980
C866        C  0.97436842  0.43543492  0.02161098     0.03020
C867        C  0.97454542  0.48426657  0.01397605    -0.13130
C868        C  0.50025374  0.51036168  0.01244890     0.00520
C869        C  0.52579010  0.48406428  0.01578534    -0.11660
C870        C  0.52546866  0.43497814  0.02279269     0.03010
C871        C  0.49978247  0.41240472  0.02800404    -0.11080
H872        H  0.95448076  0.50048712  0.00851110     0.08600
H873        H  0.54611213  0.50034567  0.01241844     0.06130
H874        H  0.49960732  0.37517704  0.03551705     0.05980
Zr875      Zr  0.82232454  0.78608343  0.00115655     2.17510
O876        O  0.78088628  0.73533158  0.49775591    -0.51440
O877        O  0.79741681  0.86046005  0.00179378    -0.74650
O878        O  0.79802087  0.78270774  0.05804544    -0.81430
O879        O  0.82722339  0.78548331  0.39623977    -0.83180
O880        O  0.82737731  0.78335967  0.10647033    -0.78800
O881        O  0.79780610  0.78166683  0.44458865    -0.90440
O882        O  0.82601231  0.92471082  0.00224101    -0.76400
O883        O  0.84680778  0.83724960  0.04134554    -0.85890
O884        O  0.84696933  0.83818345  0.46188632    -0.85580
O885        O  0.84877649  0.73318641  0.03863407    -0.72340
O886        O  0.84906219  0.73444109  0.46308285    -0.84470
Zr887      Zr  0.92749130  0.78713595  0.00124405     2.26420
Zr888      Zr  0.87493749  0.78522400  0.07833087     2.06270
Zr889      Zr  0.87497406  0.78728118  0.42402746     2.10050
Zr890      Zr  0.87247154  0.88888025  0.00202340     1.78760
O891        O  0.87490230  0.72402914  0.37876145    -0.93280
O892        O  0.87224202  0.94262427  0.05405761    -0.41090
O893        O  0.90090751  0.83936780  0.46367435    -0.77720
O894        O  0.90086979  0.83846812  0.03966984    -0.96410
O895        O  0.90311287  0.73481541  0.04048438    -0.89710
O896        O  0.90282588  0.73580096  0.46124235    -0.92550
C897        C  0.80159315  0.90549009  0.00180468     1.01200
C898        C  0.80232175  0.78320709  0.41033883     1.14130
C899        C  0.80248303  0.78240254  0.09231966     1.04910
O900        O  0.87557607  0.84768764  0.12423492    -0.94710
O901        O  0.92290964  0.78578221  0.10570923    -0.90450
O902        O  0.95246893  0.78536153  0.05738112    -0.83600
C903        C  0.94787441  0.78557099  0.09161510     1.11550
O904        O  0.83510498  0.63508448  0.50096559    -0.96680
Zr905      Zr  0.87758777  0.68392575  0.00058384     1.88940
O906        O  0.95327407  0.71388769  0.00010907    -0.73330
O907        O  0.87557501  0.72092391  0.12265594    -0.52590
O908        O  0.88040340  0.63107224  0.05292997    -0.97270
O909        O  0.87752254  0.62762674  0.45009165    -0.54490
O910        O  0.92459832  0.64958252  0.99899876    -0.73850
C911        C  0.94904654  0.66890497  0.99896081     0.98500
O912        O  0.96522878  0.84585538  0.00201093    -0.62670
O913        O  0.87572990  0.85112289  0.37932226    -0.57470
O914        O  0.95251410  0.78956879  0.44515812    -0.94150
O915        O  0.92296824  0.78917681  0.39677683    -0.92580
O916        O  0.87051571  0.94419073  0.45116169    -0.92930
O917        O  0.91422870  0.93916810  0.49968735    -0.91720
C918        C  0.94792234  0.78986690  0.41090940     1.17340
H919        H  0.83425819  0.85674837  0.44710938     0.33280
H920        H  0.91328476  0.85785708  0.05429226     0.44140
H921        H  0.91553931  0.71764158  0.44616101     0.37660
H922        H  0.83628725  0.71320015  0.05263816     0.34140
H923        H  0.86758823  0.97415384  0.04369647     0.25930
H924        H  0.87026175  0.73621821  0.14593572     0.31870
H925        H  0.88741345  0.60053480  0.04300642     0.37780
H926        H  0.86614682  0.97539070  0.46234071     0.32240
H927        H  0.87088912  0.83545765  0.35601069     0.31110
H928        H  0.87716494  0.74067152  0.35522305     0.32790
H929        H  0.88555467  0.59799874  0.46028043     0.31760
H930        H  0.92453263  0.93274723  0.02257678     0.35760
H931        H  0.96050862  0.86835337  0.48222474     0.28490
H932        H  0.76531599  0.75638093  0.00536926     0.32730
H933        H  0.84168610  0.60191354  0.00420775     0.35580
H934        H  0.85908534  0.87089199  0.38515782     0.28190
H935        H  0.96238027  0.86459376  0.02452286     0.41060
H936        H  0.85916705  0.86795183  0.11831178     0.31110
H937        H  0.85531130  0.93356732  0.06814940     0.38730
H938        H  0.89212931  0.63947449  0.43316627     0.30580
H939        H  0.85922253  0.70070829  0.11628930     0.30650
H940        H  0.78294700  0.71195255  0.01771101     0.30910
C941        C  0.74991577  0.78229368  0.33035026     0.03020
C942        C  0.77581172  0.78187289  0.34945191    -0.13130
C943        C  0.77607916  0.78320007  0.38755876     0.00520
C944        C  0.75002768  0.78510490  0.40576592    -0.11660
C945        C  0.72390262  0.78509062  0.38764651     0.03010
C946        C  0.72406039  0.78376156  0.34951736    -0.11080
H947        H  0.79549258  0.78056146  0.33459763     0.08600
H948        H  0.75009656  0.78680566  0.43511907     0.06130
H949        H  0.70434261  0.78406460  0.33470704     0.05980
Zr950      Zr  0.57238010  0.78862122  0.00136280     2.17510
O951        O  0.53059958  0.83836348  0.00580756    -0.51440
O952        O  0.54725723  0.71422017  0.99899674    -0.74650
O953        O  0.54804290  0.79476574  0.44480103    -0.81430
O954        O  0.57723526  0.79043861  0.10605949    -0.83180
O955        O  0.57729258  0.79266119  0.39632867    -0.78800
O956        O  0.54788503  0.79437441  0.05765235    -0.90440
O957        O  0.57578034  0.64994888  0.99747873    -0.76400
O958        O  0.59663170  0.73720680  0.46121366    -0.85890
O959        O  0.59677375  0.73624168  0.04067188    -0.85580
O960        O  0.59897595  0.84134047  0.46391856    -0.72340
O961        O  0.59931813  0.83998049  0.03948096    -0.84470
Zr962      Zr  0.67770667  0.78663720  0.00131384     2.26420
Zr963      Zr  0.62491771  0.78901586  0.42425493     2.06270
Zr964      Zr  0.62504297  0.78696062  0.07850454     2.10050
Zr965      Zr  0.62220303  0.68546717  0.00056037     1.78760
O966        O  0.62599497  0.85045123  0.12356051    -0.93280
O967        O  0.62381632  0.63151349  0.44871069    -0.41090
O968        O  0.65084251  0.73473940  0.03885973    -0.77720
O969        O  0.65073462  0.73560460  0.46294786    -0.96410
O970        O  0.65331273  0.83908790  0.46215494    -0.89710
O971        O  0.65321778  0.83817561  0.04130301    -0.92550
C972        C  0.55139164  0.66919371  0.99743417     1.01200
C973        C  0.55236776  0.79307323  0.09187315     1.14130
C974        C  0.55245046  0.79473497  0.41056222     1.04910
O975        O  0.62438506  0.72653543  0.37835660    -0.94710
O976        O  0.67273861  0.78680612  0.39655401    -0.90450
O977        O  0.70238125  0.78634831  0.44481411    -0.83600
C978        C  0.69772793  0.78623769  0.41056376     1.11550
O979        O  0.58555629  0.93904950  0.00367743    -0.96680
Zr980      Zr  0.62796056  0.89021445  0.00201626     1.88940
O981        O  0.70347246  0.86018659  0.00081029    -0.73330
O982        O  0.62650667  0.85332775  0.37998689    -0.52590
O983        O  0.62893542  0.94332963  0.44971506    -0.97270
O984        O  0.62995501  0.94645407  0.05251084    -0.54490
O985        O  0.67486503  0.92454769  0.00077050    -0.73850
C986        C  0.69927422  0.90523393  0.00035681     0.98500
O987        O  0.71552727  0.72809414  0.00108335    -0.62670
O988        O  0.62460784  0.72340183  0.12346344    -0.57470
O989        O  0.70251706  0.78357623  0.05773377    -0.94150
O990        O  0.67289954  0.78327334  0.10603043    -0.92580
O991        O  0.61810263  0.63050566  0.05143888    -0.92930
O992        O  0.66364063  0.63470578  0.00488531    -0.91720
C993        C  0.69787594  0.78264746  0.09199079     1.17340
H994        H  0.58389623  0.71780087  0.05531509     0.33280
H995        H  0.66302436  0.71598092  0.44835393     0.44140
H996        H  0.66608124  0.85621058  0.05628577     0.37660
H997        H  0.58662209  0.86158657  0.44994819     0.34140
H998        H  0.61823916  0.60020423  0.45870928     0.25930
H999        H  0.62085053  0.83832269  0.35672550     0.31870
H1000       H  0.63613230  0.97391021  0.45935890     0.37780
H1001       H  0.61413816  0.59923779  0.04010442     0.32240
H1002       H  0.61975401  0.73937782  0.14664154     0.31110
H1003       H  0.62732053  0.83380427  0.14721539     0.32790
H1004       H  0.63721254  0.97630338  0.04172771     0.31760
H1005       H  0.67512257  0.64256120  0.48326541     0.35760
H1006       H  0.71082876  0.70574056  0.02097390     0.28490
H1007       H  0.51511524  0.81748985  0.99747769     0.32730
H1008       H  0.59204475  0.97231363  0.50091637     0.35580
H1009       H  0.60777724  0.70414072  0.11745875     0.28190
H1010       H  0.71274713  0.70906478  0.47869191     0.41060
H1011       H  0.60723807  0.70778048  0.38373186     0.31110
H1012       H  0.60774129  0.64112890  0.43323606     0.38730
H1013       H  0.64545526  0.93503880  0.06823491     0.30580
H1014       H  0.61052090  0.87427182  0.38646697     0.30650
H1015       H  0.53256941  0.86289285  0.48663422     0.30910
C1016       C  0.00005228  0.79407046  0.33065650     0.03020
C1017       C  0.97432922  0.79004682  0.35004620    -0.13130
C1018       C  0.97411384  0.79137333  0.38811998     0.00520
C1019       C  0.00015856  0.79367866  0.40624660    -0.11660
C1020       C  0.52615021  0.79588178  0.38799726     0.03010
C1021       C  0.52582180  0.79785215  0.34997334    -0.11080
H1022       H  0.95463586  0.78604695  0.33551244     0.08600
H1023       H  0.00021109  0.79320758  0.43560091     0.06130
H1024       H  0.54550990  0.80159141  0.33540346     0.05980
C1025       C  0.75005314  0.78045539  0.17227616     0.03020
C1026       C  0.77596095  0.78055110  0.15319163    -0.13130
C1027       C  0.77623185  0.78113590  0.11506963     0.00520
C1028       C  0.75016893  0.78113134  0.09683040    -0.11660
C1029       C  0.72404575  0.78124456  0.11492166     0.03010
C1030       C  0.72419936  0.78091156  0.15306072    -0.11080
H1031       H  0.79564957  0.78039744  0.16807091     0.08600
H1032       H  0.75021477  0.78152594  0.06747611     0.06130
H1033       H  0.70447368  0.78136710  0.16784271     0.05980
C1034       C  0.00000213  0.79194311  0.17180056     0.03020
C1035       C  0.97430014  0.78688860  0.15248685    -0.13130
C1036       C  0.97408981  0.78683567  0.11439975     0.00520
C1037       C  0.00013979  0.78881419  0.09625184    -0.11660
C1038       C  0.52608278  0.79295283  0.11446413     0.03010
C1039       C  0.52573058  0.79592750  0.15245175    -0.11080
H1040       H  0.95461695  0.78327826  0.16708550     0.08600
H1041       H  0.00023191  0.78697212  0.06690236     0.06130
H1042       H  0.54536127  0.80075601  0.16698763     0.05980
Zr1043     Zr  0.92748294  0.28694432  0.02267582     2.17510
O1044       O  0.96827945  0.23488755  0.02637145    -0.51440
O1045       O  0.95265126  0.36078302  0.02139972    -0.74650
O1046       O  0.95198831  0.28368439  0.46602554    -0.81430
O1047       O  0.92272473  0.28930392  0.12743046    -0.83180
O1048       O  0.92264214  0.28339879  0.41757126    -0.78800
O1049       O  0.95215338  0.28496030  0.07910745    -0.90440
O1050       O  0.92421186  0.42516210  0.02068432    -0.76400
O1051       O  0.90311095  0.33752739  0.48207962    -0.85890
O1052       O  0.90288520  0.33978851  0.06149123    -0.85580
O1053       O  0.90110346  0.23354009  0.48547820    -0.72340
O1054       O  0.90080651  0.23599243  0.06125444    -0.84470
Zr1055     Zr  0.82236860  0.28788918  0.02252254     2.26420
Zr1056     Zr  0.87497833  0.28500462  0.44546230     2.06270
Zr1057     Zr  0.87489556  0.28957205  0.09976284     2.10050
Zr1058     Zr  0.87751631  0.38982787  0.02096339     1.78760
O1059       O  0.87518875  0.22665654  0.14518981    -0.93280
O1060       O  0.87794702  0.44275768  0.46855414    -0.41090
O1061       O  0.84898414  0.34086016  0.05961112    -0.77720
O1062       O  0.84903434  0.33872948  0.48377402    -0.96410
O1063       O  0.84683180  0.23506915  0.48369598    -0.89710
O1064       O  0.84706638  0.23736029  0.06293855    -0.92550
C1065       C  0.94859287  0.40577996  0.02117891     1.01200
C1066       C  0.94763708  0.28723757  0.11332489     1.14130
C1067       C  0.94753133  0.28285179  0.43176514     1.04910
O1068       O  0.87414306  0.34667830  0.39905736    -0.94710
O1069       O  0.82706143  0.28487257  0.41798340    -0.90450
O1070       O  0.79746818  0.28531591  0.46628088    -0.83600
C1071       C  0.80208988  0.28483127  0.43204361     1.11550
O1072       O  0.91496943  0.13645461  0.02399855    -0.96680
Zr1073     Zr  0.87239156  0.18490482  0.02400219     1.88940
O1074       O  0.79672602  0.21429028  0.02427087    -0.73330
O1075       O  0.87467869  0.22003730  0.40158057    -0.52590
O1076       O  0.86965071  0.13110034  0.47210914    -0.97270
O1077       O  0.87242073  0.12936468  0.07488040    -0.54490
O1078       O  0.82553507  0.15020107  0.02571925    -0.73850
C1079       C  0.80106099  0.16932463  0.02566695     0.98500
O1080       O  0.78453580  0.34635774  0.02125219    -0.62670
O1081       O  0.87390870  0.35370871  0.14432064    -0.57470
O1082       O  0.79737893  0.29153026  0.07866699    -0.94150
O1083       O  0.82694747  0.29211510  0.12703090    -0.92580
O1084       O  0.87940129  0.44597251  0.07139294    -0.92930
O1085       O  0.83585648  0.44036927  0.02278926    -0.91720
C1086       C  0.80199309  0.29258005  0.11291224     1.17340
H1087       H  0.91558947  0.35865734  0.07609992     0.33280
H1088       H  0.83662242  0.35787265  0.46901049     0.44140
H1089       H  0.83436095  0.21941828  0.07816805     0.37660
H1090       H  0.91361822  0.21341163  0.47161529     0.34140
H1091       H  0.88257378  0.47444401  0.47872602     0.25930
H1092       H  0.87993147  0.23507023  0.37820191     0.31870
H1093       H  0.86280924  0.10063101  0.48231447     0.37780
H1094       H  0.88407166  0.47689964  0.06001864     0.32240
H1095       H  0.87940245  0.33847332  0.16752607     0.31110
H1096       H  0.87355642  0.24353184  0.16874680     0.32790
H1097       H  0.86453261  0.09949085  0.06484703     0.31760
H1098       H  0.82542061  0.43318076  0.00013493     0.35760
H1099       H  0.78918014  0.36922486  0.04086284     0.28490
H1100       H  0.98420977  0.25554456  0.01926804     0.32730
H1101       H  0.90851137  0.10318065  0.02106290     0.35580
H1102       H  0.89012641  0.37419782  0.13793549     0.28190
H1103       H  0.78737815  0.36475795  0.99860676     0.41060
H1104       H  0.89034688  0.36744382  0.40500215     0.31110
H1105       H  0.89493100  0.43350666  0.45463997     0.38730
H1106       H  0.85770677  0.14129338  0.09162720     0.30580
H1107       H  0.89112683  0.20017345  0.40809070     0.30650
H1108       H  0.96620882  0.21189046  0.00612737     0.30910
C1109       C  0.74997640  0.29076297  0.35184490     0.03020
C1110       C  0.77573986  0.28655897  0.37110078    -0.13130
C1111       C  0.77589923  0.28533487  0.40919022     0.00520
C1112       C  0.74980479  0.28573358  0.42729776    -0.11660
C1113       C  0.72384990  0.28991720  0.40912670     0.03010
C1114       C  0.72418300  0.29337671  0.37115774    -0.11080
H1115       H  0.79547846  0.28449432  0.35644353     0.08600
H1116       H  0.74969355  0.28283251  0.45659818     0.06130
H1117       H  0.70452718  0.29765130  0.35658254     0.05980
Zr1118     Zr  0.67766498  0.28768291  0.02240851     2.17510
O1119       O  0.71923326  0.33791260  0.01762403    -0.51440
O1120       O  0.70294834  0.21366188  0.02530985    -0.74650
O1121       O  0.70193985  0.29450714  0.07901661    -0.81430
O1122       O  0.67271426  0.28752300  0.41764875    -0.83180
O1123       O  0.67263235  0.29356927  0.12746202    -0.78800
O1124       O  0.70212318  0.29202576  0.46599108    -0.90440
O1125       O  0.67444504  0.14932439  0.02723167    -0.76400
O1126       O  0.65339385  0.23685974  0.06296173    -0.85890
O1127       O  0.65325485  0.23460942  0.48351823    -0.85580
O1128       O  0.65104173  0.34088682  0.05947029    -0.72340
O1129       O  0.65073348  0.33829738  0.48383443    -0.84470
Zr1130     Zr  0.57234086  0.28562642  0.02248992     2.26420
Zr1131     Zr  0.62505148  0.28915306  0.09949225     2.06270
Zr1132     Zr  0.62493815  0.28457282  0.44530267     2.10050
Zr1133     Zr  0.62789232  0.18441376  0.02401916     1.78760
O1134       O  0.62375577  0.34757915  0.39996958    -0.93280
O1135       O  0.62633310  0.13124957  0.07625372    -0.41090
O1136       O  0.59918261  0.23303929  0.48542045    -0.77720
O1137       O  0.59926976  0.23511733  0.06117763    -0.96410
O1138       O  0.59673681  0.33871182  0.06122522    -0.89710
O1139       O  0.59682085  0.33649210  0.48206189    -0.92550
C1140       C  0.69882943  0.16867124  0.02714714     1.01200
C1141       C  0.69760026  0.29020763  0.43178012     1.14130
C1142       C  0.69749035  0.29534876  0.11325514     1.04910
O1143       O  0.62569150  0.22747680  0.14590782    -0.94710
O1144       O  0.57716294  0.28701480  0.12702433    -0.90450
O1145       O  0.54751997  0.28572930  0.07877241    -0.83600
C1146       C  0.55217859  0.28620678  0.11299229     1.11550
O1147       O  0.66471481  0.43770900  0.01891046    -0.96680
Zr1148     Zr  0.62218174  0.38914772  0.02093906     1.88940
O1149       O  0.54680206  0.35960943  0.02246892    -0.73330
O1150       O  0.62323515  0.35412799  0.14328951    -0.52590
O1151       O  0.62131789  0.44312005  0.07282375    -0.97270
O1152       O  0.62028234  0.44450314  0.46996391    -0.54490
O1153       O  0.57545512  0.42394553  0.02199179    -0.73850
C1154       C  0.55102853  0.40470538  0.02258151     0.98500
O1155       O  0.53429504  0.22736823  0.02312913    -0.62670
O1156       O  0.62544830  0.22064604  0.40054089    -0.57470
O1157       O  0.54743769  0.28108103  0.46632165    -0.94150
O1158       O  0.57702870  0.27962129  0.41802199    -0.92580
O1159       O  0.63194466  0.12872501  0.47351150    -0.92930
O1160       O  0.58654944  0.13328301  0.02015503    -0.91720
C1161       C  0.55206536  0.27922524  0.43211119     1.17340
H1162       H  0.66612202  0.21594562  0.46901098     0.33280
H1163       H  0.58697167  0.21569251  0.07589731     0.44140
H1164       H  0.58395252  0.35424089  0.46693341     0.37660
H1165       H  0.66339330  0.36135630  0.07330846     0.34140
H1166       H  0.63193626  0.09981709  0.06647023     0.25930
H1167       H  0.62874619  0.33947880  0.16671035     0.31870
H1168       H  0.61428988  0.47362905  0.06292283     0.37780
H1169       H  0.63609901  0.09769153  0.48503945     0.32240
H1170       H  0.63055460  0.23637836  0.37738014     0.31110
H1171       H  0.62106455  0.33078524  0.37653797     0.32790
H1172       H  0.61316790  0.47461379  0.48051044     0.31760
H1173       H  0.57479748  0.14203570  0.04135621     0.35760
H1174       H  0.53889235  0.20466204  0.00339734     0.28490
H1175       H  0.73481367  0.31718006  0.02577871     0.32730
H1176       H  0.65828568  0.47105515  0.02134190     0.35580
H1177       H  0.64214305  0.20125272  0.40682968     0.28190
H1178       H  0.53698249  0.20859852  0.04562733     0.41060
H1179       H  0.64280216  0.20861560  0.14058726     0.31110
H1180       H  0.64241050  0.14117449  0.09163787     0.38730
H1181       H  0.60470056  0.43294798  0.45440167     0.30580
H1182       H  0.63926876  0.37498095  0.13681687     0.30650
H1183       H  0.71729440  0.36236657  0.03686394     0.30910
C1184       C  0.99997127  0.27952642  0.35182769     0.03020
C1185       C  0.97410996  0.28212199  0.37099316    -0.13130
C1186       C  0.97377968  0.28090709  0.40908428     0.00520
C1187       C  0.49977380  0.27849787  0.42735491    -0.11660
C1188       C  0.52588034  0.27767933  0.40928177     0.03010
C1189       C  0.52574364  0.27697095  0.37119854    -0.11080
H1190       H  0.95445329  0.28509597  0.35622926     0.08600
H1191       H  0.49970724  0.27787383  0.45670948     0.06130
H1192       H  0.54551629  0.27508779  0.35659563     0.05980
C1193       C  0.74985862  0.29520440  0.19319090     0.03020
C1194       C  0.77563049  0.29251725  0.17381002    -0.13130
C1195       C  0.77582969  0.29435609  0.13574155     0.00520
C1196       C  0.74977962  0.29683629  0.11764184    -0.11660
C1197       C  0.72375031  0.29734385  0.13588452     0.03010
C1198       C  0.72403018  0.29809747  0.17395136    -0.11080
H1199       H  0.79534255  0.28902120  0.18837585     0.08600
H1200       H  0.74975377  0.29762689  0.08829425     0.06130
H1201       H  0.70429796  0.30022258  0.18861934     0.05980
C1202       C  0.50005207  0.28354552  0.19325979     0.03020
C1203       C  0.97416853  0.28627049  0.17413537    -0.13130
C1204       C  0.97388509  0.28754176  0.13605250     0.00520
C1205       C  0.49991949  0.28876152  0.11781667    -0.11660
C1206       C  0.52600489  0.28596149  0.13584417     0.03010
C1207       C  0.52583924  0.28245377  0.17383758    -0.11080
H1208       H  0.95444364  0.28713634  0.18889797     0.08600
H1209       H  0.49986508  0.29180759  0.08852206     0.06130
H1210       H  0.54559364  0.27926934  0.18835497     0.05980
C1211       C  0.72487274  0.93534047  0.00002429     0.03020
C1212       C  0.75047192  0.91270490  0.49449713    -0.13130
C1213       C  0.77594706  0.93546310  0.00124633     0.00520
C1214       C  0.77587996  0.98428261  0.00927166    -0.11660
C1215       C  0.75020078  0.01043868  0.01108379     0.03010
C1216       C  0.72464344  0.98425079  0.00756474    -0.11080
H1217       H  0.75056073  0.87557598  0.48661292     0.08600
H1218       H  0.79596209  0.00044730  0.01486654     0.06130
H1219       H  0.70434127  0.00041405  0.01129467     0.05980
C1220       C  0.77553901  0.13912760  0.02714852     0.03020
C1221       C  0.75003225  0.16172505  0.03379126    -0.13130
C1222       C  0.72447788  0.13873111  0.02838978     0.00520
C1223       C  0.72441795  0.08968452  0.02128661    -0.11660
C1224       C  0.75007660  0.06374260  0.01793418     0.03010
C1225       C  0.77563851  0.09020858  0.01956390    -0.11080
H1226       H  0.75002342  0.19901848  0.04123816     0.08600
H1227       H  0.70417108  0.07326978  0.01758569     0.06130
H1228       H  0.79576052  0.07422850  0.01397709     0.05980
C1229       C  0.00009694  0.28032906  0.31119865    -0.05450
C1230       C  0.98470709  0.24601425  0.29119336    -0.02570
C1231       C  0.98478548  0.24688065  0.25281179     0.02420
C1232       C  0.50018126  0.28218374  0.23389779    -0.05450
C1233       C  0.51559583  0.31646029  0.25393159    -0.02560
C1234       C  0.51556863  0.31551588  0.29228876     0.02420
C1235       C  0.96919082  0.20896296  0.31001479     0.37070
C1236       C  0.53102679  0.35369264  0.23519419     0.37060
C1237       C  0.53099221  0.35174451  0.31222489     0.35480
C1238       C  0.96945971  0.21054929  0.23287047     0.35480
N1239       N  0.54347113  0.38042293  0.32808303    -0.39340
N1240       N  0.95706835  0.18175325  0.21702120    -0.39340
N1241       N  0.54351511  0.38317554  0.22029671    -0.38780
N1242       N  0.95664673  0.17960857  0.32498325    -0.38790
C1243       C  0.74993639  0.29207033  0.31119767    -0.05450
C1244       C  0.73352692  0.25913307  0.29116127    -0.02570
C1245       C  0.73353831  0.26010991  0.25280895     0.02420
C1246       C  0.74988273  0.29416417  0.23385901    -0.05450
C1247       C  0.76626104  0.32716222  0.25389969    -0.02560
C1248       C  0.76630368  0.32609498  0.29227546     0.02420
C1249       C  0.71698473  0.22325384  0.30988029     0.37070
C1250       C  0.78269411  0.36316617  0.23517555     0.37060
C1251       C  0.78278913  0.36098186  0.31219168     0.35480
C1252       C  0.71713106  0.22503063  0.23296874     0.35480
N1253       N  0.79613806  0.38857314  0.32799665    -0.39340
N1254       N  0.70382612  0.19732045  0.21722332    -0.39340
N1255       N  0.79600558  0.39163601  0.22031176    -0.38780
N1256       N  0.70357040  0.19492898  0.32475117    -0.38790
C1257       C  0.00003805  0.79264949  0.21250276    -0.05450
C1258       C  0.98249117  0.82463628  0.23180681    -0.02570
C1259       C  0.98252167  0.82517601  0.27018875     0.02420
C1260       C  0.00005848  0.79365766  0.28993354    -0.05450
C1261       C  0.51758985  0.76164282  0.27060028    -0.02560
C1262       C  0.51761467  0.76120717  0.23224029     0.02420
C1263       C  0.96471159  0.85802707  0.21232715     0.37070
C1264       C  0.53529581  0.72804258  0.28999588     0.37060
C1265       C  0.53544915  0.72735436  0.21324831     0.35480
C1266       C  0.96480346  0.85918401  0.28918209     0.35480
N1267       N  0.54994564  0.70073399  0.19820711    -0.39340
N1268       N  0.95041405  0.88597748  0.30421509    -0.39340
N1269       N  0.54968822  0.70160295  0.30534685    -0.38780
N1270       N  0.95028026  0.88433153  0.19690237    -0.38790
C1271       C  0.74991600  0.78171556  0.28986284    -0.05450
C1272       C  0.76047468  0.82109749  0.27029726    -0.02650
C1273       C  0.76051262  0.82065465  0.23192784     0.02420
C1274       C  0.75001323  0.78080086  0.21278041    -0.05450
C1275       C  0.73946423  0.74138920  0.23234698    -0.02560
C1276       C  0.73940920  0.74185492  0.27074205     0.02420
C1277       C  0.77075001  0.86260571  0.28968642     0.37070
C1278       C  0.72926287  0.69983678  0.21295810     0.37060
C1279       C  0.72913079  0.70081316  0.29061502     0.35480
C1280       C  0.77078693  0.86175133  0.21211017     0.35480
N1281       N  0.72093422  0.66811487  0.30651567    -0.39340
N1282       N  0.77899846  0.89446477  0.19624216    -0.39340
N1283       N  0.72112278  0.66671380  0.19746576    -0.38780
N1284       N  0.77895803  0.89565675  0.30520707    -0.38790
C1285       C  0.97469390  0.63902523  0.99759714     0.03020
C1286       C  0.97469716  0.59007839  0.50485692    -0.13130
C1287       C  0.50031398  0.56376369  0.50617370     0.00520
C1288       C  0.52592409  0.58989932  0.50294965    -0.11660
C1289       C  0.52577871  0.63906650  0.99631147     0.03010
C1290       C  0.00016317  0.66192314  0.99121295    -0.11080
H1291       H  0.95459926  0.57397218  0.51036496     0.08600
H1292       H  0.54619456  0.57345964  0.50629161     0.06130
H1293       H  0.00009402  0.69928733  0.98406577     0.05980
C1294       C  0.97435876  0.43542654  0.52161022     0.03020
C1295       C  0.97453112  0.48425964  0.51398087    -0.13130
C1296       C  0.50023693  0.51036110  0.51245282     0.00520
C1297       C  0.52577597  0.48406914  0.51578420    -0.11660
C1298       C  0.52545912  0.43498204  0.52278819     0.03010
C1299       C  0.49977479  0.41240138  0.52799844    -0.11080
H1300       H  0.95446460  0.50047668  0.50852171     0.08600
H1301       H  0.54609654  0.50035532  0.51241621     0.06130
H1302       H  0.49960237  0.37517253  0.53550798     0.05980
Zr1303     Zr  0.82229932  0.78608330  0.50115626     2.17510
O1304       O  0.78091467  0.73532430  0.99775687    -0.51440
O1305       O  0.79739248  0.86045944  0.50179215    -0.74650
O1306       O  0.79799474  0.78270887  0.55804400    -0.81430
O1307       O  0.82724894  0.78548591  0.89623862    -0.83180
O1308       O  0.82735151  0.78335964  0.60646860    -0.78800
O1309       O  0.79783190  0.78166828  0.94458768    -0.90440
O1310       O  0.82598904  0.92470887  0.50223705    -0.76400
O1311       O  0.84678302  0.83724958  0.54134475    -0.85890
O1312       O  0.84699392  0.83818505  0.96188718    -0.85580
O1313       O  0.84874979  0.73318567  0.53863491    -0.72340
O1314       O  0.84908910  0.73444272  0.96308377    -0.84470
Zr1315     Zr  0.92746437  0.78713023  0.50124413     2.26420
Zr1316     Zr  0.87491167  0.78522325  0.57833091     2.06270
Zr1317     Zr  0.87499953  0.78728439  0.92402812     2.10050
Zr1318     Zr  0.87244782  0.88887805  0.50202200     1.78760
O1319       O  0.87493009  0.72402752  0.87876603    -0.93280
O1320       O  0.87221738  0.94262384  0.55405516    -0.41090
O1321       O  0.90093221  0.83937199  0.96367529    -0.77720
O1322       O  0.90084472  0.83846528  0.53966934    -0.96410
O1323       O  0.90308468  0.73481114  0.54048435    -0.89710
O1324       O  0.90285336  0.73580624  0.96124207    -0.92550
C1325       C  0.80156969  0.90548892  0.50180153     1.01200
C1326       C  0.80234722  0.78320925  0.91033762     1.14130
C1327       C  0.80245730  0.78240318  0.59231798     1.04910
O1328       O  0.87554808  0.84768925  0.62423318    -0.94710
O1329       O  0.92288329  0.78578290  0.60571150    -0.90450
O1330       O  0.95244156  0.78535924  0.55738259    -0.83600
C1331       C  0.94784789  0.78557109  0.59161693     1.11550
O1332       O  0.83514155  0.63507022  0.00097005    -0.96680
Zr1333     Zr  0.87755860  0.68392200  0.50058374     1.88940
O1334       O  0.95324287  0.71387945  0.50011556    -0.73330
O1335       O  0.87554877  0.72092575  0.62265815    -0.52590
O1336       O  0.88036497  0.63105574  0.55292310    -0.97270
O1337       O  0.87755213  0.62762725  0.95009383    -0.54490
O1338       O  0.92456853  0.64957297  0.49900485    -0.73850
C1339       C  0.94901654  0.66889666  0.49896862     0.98500
O1340       O  0.96520483  0.84584371  0.50200885    -0.62670
O1341       O  0.87575527  0.85112163  0.87931925    -0.57470
O1342       O  0.95254129  0.78958125  0.94515966    -0.94150
O1343       O  0.92299418  0.78918614  0.89677947    -0.92580
O1344       O  0.87053710  0.94419108  0.95116208    -0.92930
O1345       O  0.91425066  0.93917439  0.99968798    -0.91720
C1346       C  0.94794850  0.78987934  0.91091141     1.17340
H1347       H  0.83428259  0.85674971  0.94711035     0.33280
H1348       H  0.91326021  0.85785378  0.55429136     0.44140
H1349       H  0.91556691  0.71764800  0.94616007     0.37660
H1350       H  0.83626005  0.71320063  0.55263928     0.34140
H1351       H  0.86756562  0.97415364  0.54369290     0.25930
H1352       H  0.87023348  0.73622077  0.64593689     0.31870
H1353       H  0.88736926  0.60051682  0.54299539     0.37780
H1354       H  0.86616750  0.97539107  0.96234058     0.32240
H1355       H  0.87091308  0.83545452  0.85600889     0.31110
H1356       H  0.87719537  0.74066722  0.85522695     0.32790
H1357       H  0.88558823  0.59800204  0.96028214     0.31760
H1358       H  0.92450899  0.93274305  0.52257777     0.35760
H1359       H  0.96053056  0.86836703  0.98222895     0.28490
H1360       H  0.76528878  0.75639156  0.50536705     0.32730
H1361       H  0.84164480  0.60192342  0.50419293     0.35580
H1362       H  0.85911150  0.87089256  0.88515495     0.28190
H1363       H  0.96235629  0.86458568  0.52451902     0.41060
H1364       H  0.85913952  0.86795345  0.61830794     0.31110
H1365       H  0.85528538  0.93356952  0.56814539     0.38730
H1366       H  0.89215597  0.63947819  0.93316555     0.30580
H1367       H  0.85919741  0.70070812  0.61629042     0.30650
H1368       H  0.78291635  0.71195994  0.51771050     0.30910
C1369       C  0.74993692  0.78229157  0.83035128     0.03020
C1370       C  0.77583439  0.78187244  0.84945046    -0.13130
C1371       C  0.77610388  0.78320261  0.88755786     0.00520
C1372       C  0.75005301  0.78510988  0.90576674    -0.11660
C1373       C  0.72392726  0.78509352  0.88764911     0.03010
C1374       C  0.72408305  0.78376139  0.84952070    -0.11080
H1375       H  0.79551431  0.78055972  0.83459425     0.08600
H1376       H  0.75012270  0.78681377  0.93511981     0.06130
H1377       H  0.70436436  0.78406330  0.83471231     0.05980
Zr1378     Zr  0.57235627  0.78862786  0.50136350     2.17510
O1379       O  0.53058951  0.83840425  0.50580029    -0.51440
O1380       O  0.54722796  0.71423074  0.49900483    -0.74650
O1381       O  0.54806965  0.79477338  0.94479733    -0.81430
O1382       O  0.57720916  0.79044364  0.60605555    -0.83180
O1383       O  0.57731829  0.79266581  0.89632429    -0.78800
O1384       O  0.54785786  0.79437734  0.55764904    -0.90440
O1385       O  0.57575163  0.64995942  0.49749097    -0.76400
O1386       O  0.59665716  0.73720276  0.96121245    -0.85890
O1387       O  0.59674838  0.73624736  0.54067321    -0.85580
O1388       O  0.59899856  0.84133804  0.96391936    -0.72340
O1389       O  0.59929538  0.83998541  0.53948139    -0.84470
Zr1390     Zr  0.67768306  0.78663833  0.50131417     2.26420
Zr1391     Zr  0.62494185  0.78901610  0.92425467     2.06270
Zr1392     Zr  0.62501865  0.78696428  0.57850516     2.10050
Zr1393     Zr  0.62217629  0.68547089  0.50056219     1.78760
O1394       O  0.62596920  0.85045122  0.62356416    -0.93280
O1395       O  0.62385633  0.63150909  0.94871006    -0.41090
O1396       O  0.65081753  0.73474215  0.53886013    -0.77720
O1397       O  0.65075951  0.73560381  0.96294605    -0.96410
O1398       O  0.65333613  0.83908767  0.96215547    -0.89710
O1399       O  0.65319438  0.83817766  0.54130291    -0.92550
C1400       C  0.55136285  0.66920389  0.49744641     1.01200
C1401       C  0.55234140  0.79307704  0.59186941     1.14130
C1402       C  0.55247643  0.79474348  0.91055806     1.04910
O1403       O  0.62440900  0.72653989  0.87835303    -0.94710
O1404       O  0.67276376  0.78680721  0.89655673    -0.90450
O1405       O  0.70240685  0.78635086  0.94481646    -0.83600
C1406       C  0.69775314  0.78624008  0.91056647     1.11550
O1407       O  0.58553391  0.93905213  0.50367328    -0.96680
Zr1408     Zr  0.62793816  0.89021689  0.50201529     1.88940
O1409       O  0.70344912  0.86018892  0.50081003    -0.73330
O1410       O  0.62653416  0.85333180  0.87999005    -0.52590
O1411       O  0.62895567  0.94332791  0.94971637    -0.97270
O1412       O  0.62993139  0.94645634  0.55251003    -0.54490
O1413       O  0.67484238  0.92455098  0.50077084    -0.73850
C1414       C  0.69925138  0.90523672  0.50035674     0.98500
O1415       O  0.71550266  0.72809351  0.50108436    -0.62670
O1416       O  0.62458162  0.72340253  0.62346164    -0.57470
O1417       O  0.70249128  0.78357577  0.55773668    -0.94150
O1418       O  0.67287429  0.78327634  0.60603383    -0.92580
O1419       O  0.61808260  0.63051258  0.55144364    -0.92930
O1420       O  0.66360956  0.63469779  0.50487532    -0.91720
C1421       C  0.69785060  0.78264843  0.59199405     1.17340
H1422       H  0.58387055  0.71780751  0.55531668     0.33280
H1423       H  0.66304970  0.71598131  0.94835181     0.44140
H1424       H  0.66605795  0.85621246  0.55628561     0.37660
H1425       H  0.58664465  0.86158469  0.94994954     0.34140
H1426       H  0.61827948  0.60019897  0.95870738     0.25930
H1427       H  0.62087956  0.83832885  0.85672725     0.31870
H1428       H  0.63615383  0.97390789  0.95935974     0.37780
H1429       H  0.61410896  0.59924642  0.54011177     0.32240
H1430       H  0.61972712  0.73937713  0.64664005     0.31110
H1431       H  0.62729160  0.83380221  0.64721850     0.32790
H1432       H  0.63718963  0.97630545  0.54172740     0.31760
H1433       H  0.67515359  0.64256514  0.98327449     0.35760
H1434       H  0.71080362  0.70574050  0.52097510     0.28490
H1435       H  0.51509987  0.81754245  0.49746995     0.32730
H1436       H  0.59206686  0.97231095  0.00091907     0.35580
H1437       H  0.60775108  0.70414211  0.61745538     0.28190
H1438       H  0.71277218  0.70906565  0.97869070     0.41060
H1439       H  0.60726461  0.70777965  0.88373135     0.31110
H1440       H  0.60778346  0.64112112  0.93323049     0.38730
H1441       H  0.64543094  0.93504049  0.56823501     0.30580
H1442       H  0.61054804  0.87427553  0.88646938     0.30650
H1443       H  0.53257074  0.86285707  0.98664374     0.30910
C1444       C  0.00007301  0.79407851  0.83065512     0.03020
C1445       C  0.97435190  0.79005541  0.85004821    -0.13130
C1446       C  0.97413894  0.79138798  0.88812112     0.00520
C1447       C  0.00018441  0.79369879  0.90624520    -0.11660
C1448       C  0.52617538  0.79589451  0.88799349     0.03010
C1449       C  0.52584462  0.79785855  0.84996861    -0.11080
H1450       H  0.95465751  0.78605242  0.83551719     0.08600
H1451       H  0.00023791  0.79323566  0.93559947     0.06130
H1452       H  0.54553180  0.80159306  0.83539605     0.05980
C1453       C  0.75003213  0.78046018  0.67227714     0.03020
C1454       C  0.77593834  0.78055417  0.65318993    -0.13130
C1455       C  0.77620701  0.78113660  0.61506851     0.00520
C1456       C  0.75014345  0.78113019  0.59683132    -0.11660
C1457       C  0.72402104  0.78124534  0.61492458     0.03010
C1458       C  0.72417677  0.78091493  0.65306429    -0.11080
H1459       H  0.79562795  0.78040129  0.66806709     0.08600
H1460       H  0.75018843  0.78152207  0.56747701     0.06130
H1461       H  0.70445205  0.78137151  0.66784836     0.05980
C1462       C  0.99998104  0.79193730  0.67179946     0.03020
C1463       C  0.97427720  0.78688536  0.65248852    -0.13130
C1464       C  0.97406425  0.78683759  0.61440076     0.00520
C1465       C  0.00011327  0.78882105  0.59625052    -0.11660
C1466       C  0.52605722  0.79295623  0.61446083     0.03010
C1467       C  0.52570756  0.79592567  0.65244795    -0.11080
H1468       H  0.95459522  0.78327271  0.66708950     0.08600
H1469       H  0.00020413  0.78698530  0.56690077     0.06130
H1470       H  0.54533932  0.80075282  0.66698175     0.05980
Zr1471     Zr  0.92747689  0.28692952  0.52267629     2.17510
O1472       O  0.96827041  0.23486614  0.52637045    -0.51440
O1473       O  0.95264507  0.36077016  0.52140084    -0.74650
O1474       O  0.95199388  0.28369612  0.96602505    -0.81430
O1475       O  0.92271928  0.28929377  0.62743070    -0.83180
O1476       O  0.92264762  0.28340948  0.91757088    -0.78800
O1477       O  0.95214792  0.28494865  0.57910772    -0.90440
O1478       O  0.92420385  0.42514729  0.52068443    -0.76400
O1479       O  0.90311715  0.33754213  0.98207887    -0.85890
O1480       O  0.90287892  0.33977367  0.56149141    -0.85580
O1481       O  0.90111028  0.23355492  0.98547723    -0.72340
O1482       O  0.90079966  0.23597725  0.56125420    -0.84470
Zr1483     Zr  0.82236268  0.28787719  0.52252271     2.26420
Zr1484     Zr  0.87498404  0.28501904  0.94546204     2.06270
Zr1485     Zr  0.87488977  0.28955736  0.59976331     2.10050
Zr1486     Zr  0.87750959  0.38981292  0.52096389     1.78760
O1487       O  0.87518312  0.22663926  0.64518820    -0.93280
O1488       O  0.87795372  0.44277224  0.96855340    -0.41090
O1489       O  0.84897821  0.34084619  0.55961233    -0.77720
O1490       O  0.84904021  0.33874322  0.98377453    -0.96410
O1491       O  0.84683877  0.23508225  0.98369610    -0.89710
O1492       O  0.84705939  0.23734719  0.56293906    -0.92550
C1493       C  0.94858520  0.40576709  0.52117930     1.01200
C1494       C  0.94763168  0.28722831  0.61332514     1.14130
C1495       C  0.94753678  0.28286169  0.93176476     1.04910
O1496       O  0.87414854  0.34669492  0.89905880    -0.94710
O1497       O  0.82706705  0.28488316  0.91798283    -0.90450
O1498       O  0.79747403  0.28532686  0.96628048    -0.83600
C1499       C  0.80209550  0.28484094  0.93204312     1.11550
O1500       O  0.91495916  0.13643555  0.52399831    -0.96680
Zr1501     Zr  0.87238317  0.18489049  0.52400239     1.88940
O1502       O  0.79671762  0.21428219  0.52427172    -0.73330
O1503       O  0.87468368  0.22005345  0.90157884    -0.52590
O1504       O  0.86966101  0.13111368  0.97210938    -0.97270
O1505       O  0.87241115  0.12934984  0.57488030    -0.54490
O1506       O  0.82552483  0.15019073  0.52572041    -0.73850
C1507       C  0.80105119  0.16931643  0.52566834     0.98500
O1508       O  0.78453188  0.34634927  0.52125186    -0.62670
O1509       O  0.87390303  0.35369127  0.64432341    -0.57470
O1510       O  0.79737305  0.29152103  0.57866677    -0.94150
O1511       O  0.82694170  0.29210546  0.62703065    -0.92580
O1512       O  0.87939577  0.44595799  0.57139306    -0.92930
O1513       O  0.83584919  0.44035285  0.52279067    -0.91720
C1514       C  0.80198736  0.29257211  0.61291193     1.17340
H1515       H  0.91558306  0.35864287  0.57610000     0.33280
H1516       H  0.83662803  0.35788609  0.96901112     0.44140
H1517       H  0.83435356  0.21940603  0.57816860     0.37660
H1518       H  0.91362508  0.21342673  0.97161418     0.34140
H1519       H  0.88258034  0.47445869  0.97872518     0.25930
H1520       H  0.87993801  0.23508659  0.87820083     0.31870
H1521       H  0.86282134  0.10064344  0.98231511     0.37780
H1522       H  0.88406474  0.47688540  0.56001826     0.32240
H1523       H  0.87939942  0.33845546  0.66752764     0.31110
H1524       H  0.87355166  0.24351336  0.66874580     0.32790
H1525       H  0.86452191  0.09947686  0.56484692     0.31760
H1526       H  0.82541550  0.43316978  0.50013367     0.35760
H1527       H  0.78917707  0.36921645  0.54086214     0.28490
H1528       H  0.98420146  0.25552060  0.51926572     0.32730
H1529       H  0.90849986  0.10316240  0.52106187     0.35580
H1530       H  0.89011912  0.37418324  0.63793676     0.28190
H1531       H  0.78737460  0.36474864  0.49860611     0.41060
H1532       H  0.89035428  0.36745713  0.90500160     0.31110
H1533       H  0.89493780  0.43352129  0.95463939     0.38730
H1534       H  0.85769780  0.14127975  0.59162748     0.30580
H1535       H  0.89113075  0.20018747  0.90808970     0.30650
H1536       H  0.96619766  0.21186940  0.50612648     0.30910
C1537       C  0.74998035  0.29076313  0.85184486     0.03020
C1538       C  0.77574444  0.28656306  0.87110022    -0.13130
C1539       C  0.77590452  0.28534093  0.90918987     0.00520
C1540       C  0.74981026  0.28573700  0.92729792    -0.11660
C1541       C  0.72385491  0.28991604  0.90912727     0.03010
C1542       C  0.72418729  0.29337470  0.87115842    -0.11080
H1543       H  0.79548287  0.28449998  0.85644249     0.08600
H1544       H  0.74969948  0.28283722  0.95659840     0.06130
H1545       H  0.70453101  0.29764676  0.85658381     0.05980
Zr1546     Zr  0.67765932  0.28769303  0.52240824     2.17510
O1547       O  0.71922818  0.33792112  0.51762335    -0.51440
O1548       O  0.70294079  0.21366905  0.52531196    -0.74650
O1549       O  0.70193423  0.29451658  0.57901669    -0.81430
O1550       O  0.67271941  0.28751620  0.91764948    -0.83180
O1551       O  0.67262685  0.29357831  0.62746215    -0.78800
O1552       O  0.70212846  0.29201971  0.96599165    -0.90440
O1553       O  0.67443547  0.14933386  0.52723435    -0.76400
O1554       O  0.65338724  0.23687126  0.56296140    -0.85890
O1555       O  0.65326117  0.23459904  0.98351799    -0.85580
O1556       O  0.65103610  0.34089901  0.55946875    -0.72340
O1557       O  0.65073905  0.33828636  0.98383462    -0.84470
Zr1558     Zr  0.57233592  0.28563782  0.52248924     2.26420
Zr1559     Zr  0.62504606  0.28916632  0.59949174     2.06270
Zr1560     Zr  0.62494334  0.28456194  0.94530329     2.10050
Zr1561     Zr  0.62788471  0.18442568  0.52401938     1.78760
O1562       O  0.62376080  0.34756739  0.89996950    -0.93280
O1563       O  0.62632302  0.13126123  0.57625366    -0.41090
O1564       O  0.59918858  0.23302780  0.98542161    -0.77720
O1565       O  0.59926382  0.23513001  0.56117830    -0.96410
O1566       O  0.59673106  0.33872438  0.56122445    -0.89710
O1567       O  0.59682636  0.33648083  0.98206324    -0.92550
C1568       C  0.69882024  0.16867865  0.52715002     1.01200
C1569       C  0.69760539  0.29020262  0.93178077     1.14130
C1570       C  0.69748487  0.29535679  0.61325533     1.04910
O1571       O  0.62568623  0.22749384  0.64591021    -0.94710
O1572       O  0.57715755  0.28702401  0.62702318    -0.90450
O1573       O  0.54751455  0.28574229  0.57877119    -0.83600
C1574       C  0.55217324  0.28621670  0.61299105     1.11550
O1575       O  0.66470786  0.43772325  0.51891223    -0.96680
Zr1576     Zr  0.62217538  0.38916017  0.52093762     1.88940
O1577       O  0.54679699  0.35961854  0.52246504    -0.73330
O1578       O  0.62323006  0.35414441  0.64328629    -0.52590
O1579       O  0.62130855  0.44313283  0.57282203    -0.97270
O1580       O  0.62028585  0.44449234  0.96996654    -0.54490
O1581       O  0.57544744  0.42395747  0.52198700    -0.73850
C1582       C  0.55102142  0.40471465  0.52257669     0.98500
O1583       O  0.53429064  0.22737889  0.52313021    -0.62670
O1584       O  0.62545333  0.22063378  0.90054266    -0.57470
O1585       O  0.54744302  0.28107285  0.96632145    -0.94150
O1586       O  0.57703397  0.27961458  0.91802173    -0.92580
O1587       O  0.63195112  0.12871443  0.97351025    -0.92930
O1588       O  0.58653994  0.13329952  0.52015335    -0.91720
C1589       C  0.55207060  0.27921927  0.93211082     1.17340
H1590       H  0.66612856  0.21593616  0.96901038     0.33280
H1591       H  0.58696560  0.21570567  0.57589816     0.44140
H1592       H  0.58395813  0.35423036  0.96693512     0.37660
H1593       H  0.66338791  0.36136839  0.57330667     0.34140
H1594       H  0.63192568  0.09982844  0.56647029     0.25930
H1595       H  0.62873915  0.33949599  0.66670819     0.31870
H1596       H  0.61428057  0.47364150  0.56292048     0.37780
H1597       H  0.63610836  0.09768151  0.98503734     0.32240
H1598       H  0.63055798  0.23636592  0.87738123     0.31110
H1599       H  0.62107038  0.33077295  0.87653796     0.32790
H1600       H  0.61317309  0.47460323  0.98051454     0.31760
H1601       H  0.57479034  0.14204691  0.54135799     0.35760
H1602       H  0.53888794  0.20467200  0.50339888     0.28490
H1603       H  0.73480805  0.31718818  0.52577905     0.32730
H1604       H  0.65827814  0.47106916  0.52134305     0.35580
H1605       H  0.64214906  0.20124228  0.90683040     0.28190
H1606       H  0.53697827  0.20861007  0.54562880     0.41060
H1607       H  0.64279394  0.20862668  0.64058618     0.31110
H1608       H  0.64240028  0.14118499  0.59163851     0.38730
H1609       H  0.60470251  0.43293887  0.95440618     0.30580
H1610       H  0.63926499  0.37499487  0.63681440     0.30650
H1611       H  0.71728931  0.36237580  0.53686273     0.30910
C1612       C  0.99997581  0.27952638  0.85182731     0.03020
C1613       C  0.97411489  0.28212595  0.87099303    -0.13130
C1614       C  0.97378492  0.28091291  0.90908401     0.00520
C1615       C  0.49977901  0.27850073  0.92735446    -0.11660
C1616       C  0.52588544  0.27767753  0.90928117     0.03010
C1617       C  0.52574838  0.27696855  0.87119776    -0.11080
H1618       H  0.95445821  0.28510169  0.85622933     0.08600
H1619       H  0.49971249  0.27787796  0.95670903     0.06130
H1620       H  0.54552076  0.27508280  0.85659446     0.05980
C1621       C  0.74985405  0.29520544  0.69319082     0.03020
C1622       C  0.77562543  0.29251443  0.67380950    -0.13130
C1623       C  0.77582424  0.29435243  0.63574119     0.00520
C1624       C  0.74977419  0.29683656  0.61764180    -0.11660
C1625       C  0.72374504  0.29734802  0.63588481     0.03010
C1626       C  0.72402536  0.29810119  0.67395185    -0.11080
H1627       H  0.79533751  0.28901609  0.68837498     0.08600
H1628       H  0.74974824  0.29762707  0.58829419     0.06130
H1629       H  0.70429346  0.30022836  0.68862036     0.05980
C1630       C  0.50004826  0.28354693  0.69325936     0.03020
C1631       C  0.97416411  0.28626731  0.67413560    -0.13130
C1632       C  0.97387993  0.28753758  0.63605255     0.00520
C1633       C  0.49991400  0.28876205  0.61781610    -0.11660
C1634       C  0.52599979  0.28596698  0.63584304     0.03010
C1635       C  0.52583499  0.28245882  0.67383627    -0.11080
H1636       H  0.95443942  0.28713024  0.68889873     0.08600
H1637       H  0.49985906  0.29180767  0.58852145     0.06130
H1638       H  0.54558987  0.27927710  0.68835293     0.05980
C1639       C  0.72485027  0.93534307  0.50002338     0.03020
C1640       C  0.75049509  0.91270334  0.99450071    -0.13130
C1641       C  0.77592444  0.93546258  0.50124302     0.00520
C1642       C  0.77585905  0.98428085  0.50927027    -0.11660
C1643       C  0.75018113  0.01043911  0.51108373     0.03010
C1644       C  0.72462256  0.98425363  0.50756533    -0.11080
H1645       H  0.75058471  0.87557391  0.98661802     0.08600
H1646       H  0.79594179  0.00044263  0.51486609     0.06130
H1647       H  0.70432108  0.00041893  0.51129705     0.05980
C1648       C  0.77552773  0.13912291  0.52715099     0.03020
C1649       C  0.75002234  0.16172413  0.53379549    -0.13130
C1650       C  0.72446676  0.13873477  0.52839326     0.00520
C1651       C  0.72440364  0.08968844  0.52128900    -0.11660
C1652       C  0.75006048  0.06374262  0.51793532     0.03010
C1653       C  0.77562410  0.09020448  0.51956452    -0.11080
H1654       H  0.75001544  0.19901722  0.54124353     0.08600
H1655       H  0.70415593  0.07327661  0.51758772     0.06130
H1656       H  0.79574510  0.07422219  0.51397557     0.05980
C1657       C  0.00010033  0.28032819  0.81119833    -0.05450
C1658       C  0.98470911  0.24601396  0.79119423    -0.02570
C1659       C  0.98478510  0.24688108  0.75281265     0.02420
C1660       C  0.50017908  0.28218535  0.73389746    -0.05450
C1661       C  0.51559478  0.31646169  0.75393026    -0.02560
C1662       C  0.51557073  0.31551547  0.79228741     0.02420
C1663       C  0.96919362  0.20896284  0.81001693     0.37070
C1664       C  0.53102376  0.35369569  0.73519204     0.37060
C1665       C  0.53099606  0.35174280  0.81222265     0.35480
C1666       C  0.96945896  0.21054902  0.73287258     0.35480
N1667       N  0.54347633  0.38042016  0.82808013    -0.39340
N1668       N  0.95706738  0.18175229  0.71702432    -0.39340
N1669       N  0.54351056  0.38317993  0.72029398    -0.38780
N1670       N  0.95665007  0.17960869  0.82498641    -0.38790
C1671       C  0.74993885  0.29206973  0.81119751    -0.05450
C1672       C  0.73352803  0.25913285  0.79116232    -0.02570
C1673       C  0.73353625  0.26011147  0.75281001     0.02420
C1674       C  0.74987952  0.29416592  0.73385886    -0.05450
C1675       C  0.76625945  0.32716313  0.75389817    -0.02560
C1676       C  0.76630460  0.32609515  0.79227391     0.02420
C1677       C  0.71698763  0.22325222  0.80988241     0.37070
C1678       C  0.78269180  0.36316673  0.73517257     0.37060
C1679       C  0.78279087  0.36098234  0.81218867     0.35480
C1680       C  0.71712703  0.22503381  0.73297086     0.35480
N1681       N  0.79614040  0.38857397  0.82799246    -0.39340
N1682       N  0.70382058  0.19732493  0.71722623    -0.39340
N1683       N  0.79600277  0.39163619  0.72030762    -0.38780
N1684       N  0.70357468  0.19492621  0.82475408    -0.38790
C1685       C  0.00002352  0.79264080  0.71250158    -0.05450
C1686       C  0.98248345  0.82463146  0.73181157    -0.02570
C1687       C  0.98252853  0.82518081  0.77019335     0.02420
C1688       C  0.00007191  0.79366583  0.78993215    -0.05450
C1689       C  0.51759633  0.76164681  0.77059294    -0.02560
C1690       C  0.51760665  0.76120172  0.73223295     0.02420
C1691       C  0.96469601  0.85801636  0.71233802     0.37070
C1692       C  0.53531007  0.72805246  0.78998248     0.37060
C1693       C  0.53543308  0.72734274  0.71323466     0.35480
C1694       C  0.96481869  0.85919582  0.78919250     0.35480
N1695       N  0.54992309  0.70071753  0.69818802    -0.39340
N1696       N  0.95043600  0.88599493  0.80423037    -0.39340
N1697       N  0.54970877  0.70161741  0.80532823    -0.38780
N1698       N  0.95025835  0.88431607  0.69691838    -0.38790
C1699       C  0.74993119  0.78171186  0.78986393    -0.05450
C1700       C  0.76048241  0.82109613  0.77029473    -0.02650
C1701       C  0.76050510  0.82065841  0.73192528     0.02420
C1702       C  0.74999831  0.78080699  0.71278141    -0.05450
C1703       C  0.73945678  0.74139296  0.73235163    -0.02560
C1704       C  0.73941675  0.74185378  0.77074676     0.02420
C1705       C  0.77076526  0.86260173  0.78968051     0.37070
C1706       C  0.72924807  0.69984299  0.71296618     0.37060
C1707       C  0.72914537  0.70080988  0.79062326     0.35480
C1708       C  0.77077170  0.86175777  0.71210419     0.35480
N1709       N  0.72095444  0.66810997  0.80652680    -0.39340
N1710       N  0.77897698  0.89447343  0.69623346    -0.39340
N1711       N  0.72110206  0.66672191  0.69747668    -0.38780
N1712       N  0.77897933  0.89565062  0.80519848    -0.38790
loop_ 
_geom_bond_atom_site_label_1 
_geom_bond_atom_site_label_2 
_geom_bond_distance 
_geom_bond_site_symmetry_2 
_ccdc_geom_bond_type 
C1            C6   1.390       .  A
C1          C430   1.402       .  A
C1          C483   1.481       .  S
C2          C429   1.402   1_554  A
C2          C859   1.425       .  A
C2            H7   1.076       .  S
C3            C4   1.426       .  A
C3          C858   1.425   1_455  A
C3           C12   1.519       .  S
C4          C433   1.404   1_554  A
C4            H8   1.075       .  S
C5          C432   1.404       .  A
C5          C862   1.389       .  A
C5          C544   1.483       .  S
C6          C861   1.389       .  A
C6            H9   1.083       .  S
C10          C11   1.402       .  A
C10         C871   1.390       .  A
C10         C209   1.481       .  S
C11         C868   1.425       .  A
C11          H16   1.076       .  S
C12          C13   1.426       .  A
C12         C867   1.425   1_455  A
C13          C14   1.404       .  A
C13          H17   1.075       .  S
C14          C15   1.388   1_455  A
C14         C298   1.483       .  S
C15         C866   1.390       .  A
C15          H18   1.083       .  S
Zr19         O21   2.403       .  S
Zr19         O22   2.391       .  S
Zr19        O453   2.386   1_554  S
Zr19         O27   2.366       .  S
Zr19         O29   2.386       .  S
Zr19        O456   2.368   1_554  S
Zr19        O458   2.384   1_554  S
Zr19        O448   2.433   1_554  S
O20        Zr447   2.433       .  S
O20         H504   0.989       .  S
O20         H512   0.990       .  S
O21          C41   1.281       .  A
O22          C43   1.278       .  A
O23         Zr33   2.488       .  S
O23          C42   1.293       .  A
O24         Zr32   2.485       .  S
O24          C43   1.292       .  A
O25        Zr447   2.386       .  S
O25          C42   1.278       .  A
O26         Zr34   2.426       .  S
O26          C41   1.279       .  A
O27         Zr32   2.404       .  S
O27         Zr34   2.385       .  S
O28         Zr33   2.399       .  S
O28        Zr447   2.368       .  S
O28        Zr462   2.380       .  S
O28          H63   0.966       .  S
O29         Zr32   2.410       .  S
O29         Zr49   2.397       .  S
O29          H66   0.966       .  S
O30         Zr33   2.406       .  S
O30        Zr447   2.384       .  S
O30        Zr477   2.399       .  S
Zr31         O50   2.397       .  S
Zr31         O46   2.381       .  S
Zr31        O486   2.382   1_554  S
Zr31         O38   2.382       .  S
Zr31         O39   2.364       .  S
Zr31        O465   2.380   1_554  S
Zr31        O468   2.368   1_554  S
Zr31         O56   2.436       .  S
Zr32         O45   2.491       .  S
Zr32         O38   2.405       .  S
Zr32         O39   2.395       .  S
Zr32         O51   2.436       .  S
Zr32         O44   2.434       .  S
Zr33         O59   2.491       .  S
Zr33         O37   2.404       .  S
Zr33         O40   2.392       .  S
Zr33         O35   2.434       .  S
Zr33         O57   2.435       .  S
Zr34         O38   2.398       .  S
Zr34        O456   2.380   1_554  S
Zr34        O465   2.398   1_554  S
Zr34         O36   2.436       .  S
Zr34        O488   2.435   1_554  S
Zr34        O489   2.438   1_554  S
O35          H72   0.990       .  S
O36          H67   0.990       .  S
O36          H81   0.990       .  S
O37        Zr459   2.380       .  S
O37        Zr462   2.398       .  S
O38          H64   0.966       .  S
O39         Zr49   2.379       .  S
O40        Zr459   2.368       .  S
O40        Zr477   2.380       .  S
O40          H65   0.966       .  S
C41         C357   1.482       .  S
C42          C87   1.502       .  S
C43         C171   1.502       .  S
O44          H80   0.990       .  S
O45          C47   1.294       .  A
O46          C47   1.277       .  A
C47         C180   1.501       .  S
O48        Zr477   2.439       .  S
O48         H505   0.990       .  S
Zr49         O54   2.434   1_554  S
Zr49        O458   2.399   1_554  S
Zr49        O468   2.380   1_554  S
Zr49         O52   2.437       .  S
Zr49        O476   2.439       .  S
Zr49        O481   2.438   1_554  S
O50          C55   1.281   1_554  A
O51          H68   0.990       .  S
O51          H83   0.990       .  S
O52          H69   0.990       .  S
O53        Zr477   2.438       .  S
O53          H73   0.990       .  S
O53          H82   0.990       .  S
O54          C55   1.282       .  A
C55         C429   1.481       .  S
O56          H79   0.990       .  S
O56         H503   0.990   1_554  S
O57          H71   0.990       .  S
O57          H78   0.990       .  S
O58        Zr459   2.382       .  S
O58          C62   1.278       .  A
O59          C62   1.294       .  A
O60        Zr462   2.435       .  S
O60          H70   0.990       .  S
O61        Zr462   2.438       .  S
O61         H502   0.990       .  S
C62         C162   1.501       .  S
H74         O489   0.990   1_554  S
H75         O484   0.990       .  S
H76         O448   0.989   1_554  S
H77         O476   0.990       .  S
H84         O448   0.990   1_554  S
C85          C86   1.416       .  A
C85          C90   1.417       .  A
C85         C415   1.489       .  S
C86          C87   1.402       .  A
C86          H91   1.083       .  S
C87          C88   1.408       .  A
C88          C89   1.408       .  A
C88          H92   1.080       .  S
C89          C90   1.402       .  A
C89         C122   1.502       .  S
C90          H93   1.083       .  S
Zr94         O96   2.409   1_554  S
Zr94        O100   2.380       .  S
Zr94        O525   2.385   1_554  S
Zr94        O103   2.368       .  S
Zr94        O105   2.383       .  S
Zr94        O530   2.366   1_554  S
Zr94        O532   2.386   1_554  S
Zr94         O95   2.434       .  S
O95         H151   0.989   1_554  S
O95         H587   0.990   1_554  S
O96         C116   1.282       .  A
O97        Zr522   2.385       .  S
O97         C118   1.276       .  A
O98        Zr108   2.489       .  S
O98         C117   1.293       .  A
O99        Zr107   2.486       .  S
O99         C118   1.292       .  A
O100        C117   1.277       .  A
O101       Zr109   2.423   1_556  S
O101        C116   1.279       .  A
O102       Zr107   2.403       .  S
O102       Zr522   2.366       .  S
O102       Zr537   2.385       .  S
O103       Zr108   2.401       .  S
O103       Zr109   2.381       .  S
O103        H138   0.966       .  S
O104       Zr107   2.410       .  S
O104       Zr522   2.386       .  S
O104       Zr552   2.395       .  S
O104        H141   0.966       .  S
O105       Zr108   2.404       .  S
O105       Zr124   2.397       .  S
Zr106       O125   2.402       .  S
Zr106       O133   2.387       .  S
Zr106       O549   2.386   1_554  S
Zr106       O112   2.380       .  S
Zr106       O115   2.369       .  S
Zr106       O541   2.383   1_554  S
Zr106       O542   2.365   1_554  S
Zr106       O131   2.437       .  S
Zr107       O120   2.490       .  S
Zr107       O113   2.406       .  S
Zr107       O114   2.395       .  S
Zr107       O126   2.435       .  S
Zr107       O119   2.435       .  S
Zr108       O134   2.490       .  S
Zr108       O112   2.404       .  S
Zr108       O115   2.395       .  S
Zr108       O110   2.434       .  S
Zr108       O132   2.436       .  S
Zr109       O112   2.397       .  S
Zr109       O530   2.385   1_554  S
Zr109       O541   2.396   1_554  S
Zr109       O135   2.435       .  S
Zr109       O136   2.437       .  S
Zr109       O539   2.436   1_554  S
O110        H147   0.990       .  S
O111       Zr537   2.436       .  S
O111        H142   0.990       .  S
O111        H156   0.990       .  S
O113       Zr534   2.383       .  S
O113       Zr537   2.396       .  S
O113        H139   0.966       .  S
O114       Zr534   2.365       .  S
O114       Zr552   2.380       .  S
O115       Zr124   2.382       .  S
O115        H140   0.966       .  S
C116        C433   1.483       .  S
C117        C182   1.500       .  S
C118        C164   1.500       .  S
O119        H155   0.990       .  S
O120        C122   1.294       .  A
O121       Zr534   2.386       .  S
O121        C122   1.278       .  A
O123       Zr124   2.439       .  S
O123        H580   0.990       .  S
Zr124       O129   2.428       .  S
Zr124       O532   2.395   1_554  S
Zr124       O542   2.380   1_554  S
Zr124       O128   2.439       .  S
Zr124       O555   2.436   1_554  S
O125        C130   1.282       .  A
O126        H143   0.990       .  S
O126        H158   0.990       .  S
O127       Zr552   2.436       .  S
O127        H144   0.990       .  S
O128        H148   0.990       .  S
O128        H157   0.990       .  S
O129        C130   1.281       .  A
C130        C355   1.481       .  S
O131        H150   0.990       .  S
O131        H582   0.990   1_554  S
O132        H146   0.990       .  S
O132        H153   0.990       .  S
O133        C137   1.279       .  A
O134        C137   1.294       .  A
O135        H145   0.990       .  S
O136        H577   0.990   1_554  S
C137        C173   1.502       .  S
H149        O564   0.990       .  S
H152        O551   0.990       .  S
H154        O559   0.990       .  S
H159        O523   0.990       .  S
C160        C161   1.419       .  A
C160       C1021   1.419       .  A
C160        C404   1.497       .  S
C161        C162   1.400       .  A
C161        H166   1.083       .  S
C162        C163   1.406       .  A
C163       C1020   1.407       .  A
C163        H167   1.079       .  S
C164        C165   1.399       .  A
C164       C1019   1.407       .  A
C165       C1016   1.419       .  A
C165        H168   1.083       .  S
C169        C170   1.417       .  A
C169        C174   1.417       .  A
C169        C418   1.489       .  S
C170        C171   1.402       .  A
C170        H175   1.083       .  S
C171        C172   1.408       .  A
C172        C173   1.408       .  A
C172        H176   1.079       .  S
C173        C174   1.402       .  A
C174        H177   1.083       .  S
C178        C179   1.419       .  A
C178       C1039   1.419       .  A
C178        C401   1.497       .  S
C179        C180   1.400       .  A
C179        H184   1.083       .  S
C180        C181   1.407       .  A
C181       C1038   1.407       .  A
C181        H185   1.080       .  S
C182        C183   1.399       .  A
C182       C1037   1.407       .  A
C183       C1034   1.419       .  A
C183        H186   1.083       .  S
Zr187       O189   2.395       .  S
Zr187       O193   2.383       .  S
Zr187       O618   2.388   1_554  S
Zr187       O196   2.368       .  S
Zr187       O198   2.382       .  S
Zr187       O623   2.366   1_554  S
Zr187       O625   2.384   1_554  S
Zr187       O188   2.433       .  S
O188        H244   0.989       .  S
O188        H252   0.990       .  S
O189        C209   1.280       .  A
O190       Zr615   2.388       .  S
O190        C211   1.277       .  A
O191       Zr201   2.489       .  S
O191        C210   1.293       .  A
O192       Zr200   2.486       .  S
O192        C211   1.292       .  A
O193        C210   1.278       .  A
O194       Zr202   2.430       .  S
O194        C209   1.280       .  A
O195       Zr200   2.402       .  S
O195       Zr615   2.366       .  S
O195       Zr630   2.383       .  S
O196       Zr201   2.397       .  S
O196       Zr202   2.379       .  S
O196        H231   0.966       .  S
O197       Zr200   2.409       .  S
O197       Zr615   2.384       .  S
O197       Zr645   2.396       .  S
O197        H234   0.966       .  S
O198       Zr201   2.405       .  S
O198       Zr217   2.399       .  S
Zr199       O218   2.401       .  S
Zr199       O226   2.383       .  S
Zr199       O642   2.383   1_554  S
Zr199       O205   2.381       .  S
Zr199       O208   2.368       .  S
Zr199       O634   2.384   1_554  S
Zr199       O635   2.364   1_554  S
Zr199       O224   2.437       .  S
Zr200       O213   2.490       .  S
Zr200       O206   2.405       .  S
Zr200       O207   2.395       .  S
Zr200       O219   2.436       .  S
Zr200       O212   2.434       .  S
Zr201       O227   2.490       .  S
Zr201       O205   2.404       .  S
Zr201       O208   2.393       .  S
Zr201       O203   2.434       .  S
Zr201       O225   2.435       .  S
Zr202       O205   2.399       .  S
Zr202       O623   2.383   1_554  S
Zr202       O634   2.399   1_554  S
Zr202       O228   2.435       .  S
Zr202       O229   2.438       .  S
Zr202       O632   2.436   1_554  S
O203        H240   0.990       .  S
O204       Zr630   2.436       .  S
O204        H235   0.990       .  S
O204        H249   0.990       .  S
O206       Zr627   2.384       .  S
O206       Zr630   2.399       .  S
O206        H232   0.966       .  S
O207       Zr627   2.364       .  S
O207       Zr645   2.380       .  S
O208       Zr217   2.381       .  S
O208        H233   0.966       .  S
C210        C348   1.501       .  S
C211        C330   1.501       .  S
O212        H248   0.990       .  S
O213        C215   1.294       .  A
O214       Zr627   2.383       .  S
O214        C215   1.278       .  A
C215        C255   1.501       .  S
O216       Zr217   2.439       .  S
O216        H245   0.990       .  S
Zr217       O222   2.430       .  S
Zr217       O625   2.396   1_554  S
Zr217       O635   2.380   1_554  S
Zr217       O221   2.438       .  S
Zr217       O648   2.437   1_554  S
O218        C223   1.282       .  A
O219        H236   0.990       .  S
O219        H251   0.990       .  S
O220       Zr645   2.437       .  S
O220        H237   0.990       .  S
O221        H241   0.990       .  S
O221        H250   0.990       .  S
O222        C223   1.281       .  A
C223        C364   1.481       .  S
O224        H243   0.990       .  S
O224        H247   0.990   1_554  S
O225        H239   0.990       .  S
O225        H246   0.990       .  S
O226        C230   1.278       .  A
O227        C230   1.294       .  A
O228        H238   0.990       .  S
O229        H242   0.990       .  S
C230        C339   1.501       .  S
C253        C254   1.419       .  A
C253        C258   1.418       .  A
C253        C387   1.495       .  S
C254        C255   1.401       .  A
C254        H259   1.083       .  S
C255        C256   1.407       .  A
C256        C257   1.407       .  A
C256        H260   1.080       .  S
C257        C258   1.400       .  A
C257        C285   1.500       .  S
C258        H261   1.083       .  S
Zr262       O264   2.406       .  S
Zr262       O265   2.387       .  S
Zr262       O696   2.381   1_554  S
Zr262       O270   2.366       .  S
Zr262       O272   2.386       .  S
Zr262       O699   2.368   1_554  S
Zr262       O701   2.383   1_554  S
Zr262       O263   2.433       .  S
O263        H319   0.989       .  S
O263        H327   0.990       .  S
O264        C284   1.282       .  A
O265        C286   1.277       .  A
O266       Zr276   2.488       .  S
O266        C285   1.293       .  A
O267       Zr275   2.486       .  S
O267        C286   1.292       .  A
O268       Zr690   2.381       .  S
O268        C285   1.277       .  A
O269       Zr277   2.425       .  S
O269        C284   1.279       .  A
O270       Zr275   2.403       .  S
O270       Zr277   2.384       .  S
O271       Zr276   2.400       .  S
O271       Zr690   2.368       .  S
O271       Zr705   2.380       .  S
O271        H306   0.966       .  S
O272       Zr275   2.410       .  S
O272       Zr292   2.394       .  S
O272        H309   0.966       .  S
O273       Zr276   2.405       .  S
O273       Zr690   2.383       .  S
O273       Zr720   2.397       .  S
Zr274       O293   2.408       .  S
Zr274       O289   2.382       .  S
Zr274       O729   2.383   1_554  S
Zr274       O281   2.384       .  S
Zr274       O282   2.364       .  S
Zr274       O708   2.381   1_554  S
Zr274       O711   2.369   1_554  S
Zr274       O299   2.438       .  S
Zr275       O288   2.491       .  S
Zr275       O281   2.405       .  S
Zr275       O282   2.395       .  S
Zr275       O294   2.435       .  S
Zr275       O287   2.435       .  S
Zr276       O302   2.490       .  S
Zr276       O280   2.403       .  S
Zr276       O283   2.396       .  S
Zr276       O278   2.434       .  S
Zr276       O300   2.436       .  S
Zr277       O281   2.397       .  S
Zr277       O699   2.380   1_554  S
Zr277       O708   2.397   1_554  S
Zr277       O304   2.437       .  S
Zr277       O279   2.436       .  S
Zr277       O731   2.435   1_554  S
O278        H315   0.990       .  S
O279        H310   0.990       .  S
O279        H324   0.990       .  S
O280       Zr702   2.381       .  S
O280       Zr705   2.397       .  S
O281        H307   0.966       .  S
O282       Zr292   2.381       .  S
O283       Zr702   2.369       .  S
O283       Zr720   2.383       .  S
O283        H308   0.966       .  S
C284        C366   1.482       .  S
C286        C341   1.500       .  S
O287        H323   0.990       .  S
O288        C290   1.294       .  A
O289        C290   1.277       .  A
C290        C350   1.501       .  S
O291       Zr292   2.439       .  S
O291        H320   0.990       .  S
Zr292       O297   2.426       .  S
Zr292       O701   2.397   1_554  S
Zr292       O711   2.383   1_554  S
Zr292       O295   2.436       .  S
Zr292       O724   2.439   1_554  S
O293        C298   1.284       .  A
O294        H311   0.990       .  S
O294        H326   0.990       .  S
O295        H312   0.990       .  S
O296       Zr720   2.439       .  S
O296        H316   0.990       .  S
O296        H325   0.990       .  S
O297        C298   1.280       .  A
O299        H318   0.990       .  S
O299        H322   0.990       .  S
O300        H314   0.990       .  S
O300        H321   0.990       .  S
O301       Zr702   2.383       .  S
O301        C305   1.278       .  A
O302        C305   1.294       .  A
O303       Zr705   2.435       .  S
O303        H313   0.990       .  S
O304        H317   0.990       .  S
C305        C332   1.501       .  S
C328        C329   1.418       .  A
C328       C1189   1.418       .  A
C328        C373   1.494       .  S
C329        C330   1.401       .  A
C329        H334   1.083       .  S
C330       C1187   1.407       .  A
C331        C332   1.407   1_655  A
C331       C1186   1.407       .  A
C331        H335   1.079       .  S
C332        C333   1.400       .  A
C333       C1184   1.418   1_455  A
C333        H336   1.083       .  S
C337        C338   1.419       .  A
C337        C342   1.418       .  A
C337        C390   1.496       .  S
C338        C339   1.401       .  A
C338        H343   1.083       .  S
C339        C340   1.407       .  A
C340        C341   1.407       .  A
C340        H344   1.079       .  S
C341        C342   1.400       .  A
C342        H345   1.083       .  S
C346        C351   1.418       .  A
C346       C1203   1.418   1_455  A
C346        C376   1.495       .  S
C347        C348   1.401       .  A
C347       C1202   1.418       .  A
C347        H352   1.083       .  S
C348       C1205   1.407       .  A
C349        C350   1.407   1_655  A
C349       C1204   1.407       .  A
C349        H353   1.081       .  S
C350        C351   1.400       .  A
C351        H354   1.083       .  S
C355        C360   1.402       .  A
C355        C784   1.389   1_554  A
C356        C783   1.389       .  A
C356        C785   1.390       .  A
C356        H361   1.083       .  S
C357        C358   1.404       .  A
C357        C784   1.390   1_554  A
C358        C359   1.426   1_565  A
C358        H362   1.076   1_565  S
C359        C360   1.425   1_545  A
C359        C368   1.519       .  S
C360        H363   1.075   1_565  S
C364        C365   1.390       .  A
C364        C369   1.403       .  A
C365        C366   1.389       .  A
C365        H370   1.083       .  S
C366        C367   1.403       .  A
C367        C368   1.426       .  A
C367        H371   1.075       .  S
C368        C369   1.425       .  A
C369        H372   1.076       .  S
C373        C374   1.415       .  A
C373       C1234   1.415       .  A
C374        C375   1.411       .  A
C374        C379   1.452       .  S
C375       C1232   1.416       .  A
C375        C382   1.452       .  S
C376        C377   1.416       .  A
C376       C1231   1.416   1_455  A
C377        C378   1.411       .  A
C377        C380   1.452       .  S
C378       C1229   1.415       .  A
C378        C381   1.452       .  S
C379        N386   1.157       .  T
C380        N385   1.157       .  T
C381        N383   1.157       .  T
C382        N384   1.157       .  T
C387        C388   1.416       .  A
C387        C392   1.416       .  A
C388        C389   1.410       .  A
C388        C393   1.452       .  S
C389        C390   1.416       .  A
C389        C396   1.452       .  S
C390        C391   1.416       .  A
C391        C392   1.411       .  A
C391        C394   1.452       .  S
C392        C395   1.452       .  S
C393        N400   1.157       .  T
C394        N399   1.157       .  T
C395        N397   1.157       .  T
C396        N398   1.157       .  T
C401        C402   1.417       .  A
C401       C1262   1.417       .  A
C402        C403   1.411       .  A
C402        C407   1.452       .  S
C403        C404   1.417       .  A
C403        C410   1.452       .  S
C404       C1261   1.417       .  A
C405        C406   1.410       .  A
C405       C1260   1.417       .  A
C405        C408   1.453       .  S
C406       C1257   1.417       .  A
C406        C409   1.453       .  S
C407        N414   1.157       .  T
C408        N413   1.157       .  T
C409        N411   1.157       .  T
C410        N412   1.157       .  T
C415        C416   1.413       .  A
C415        C420   1.413       .  A
C416        C417   1.411       .  A
C416        C421   1.451       .  S
C417        C418   1.413       .  A
C417        C424   1.451       .  S
C418        C419   1.413       .  A
C419        C420   1.412       .  A
C419        C422   1.451       .  S
C420        C423   1.451       .  S
C421        N428   1.157       .  T
C422        N427   1.157       .  T
C423        N425   1.157       .  T
C424        N426   1.157       .  T
C429        C434   1.390       .  A
C430       C1287   1.425       .  A
C430        H435   1.076       .  S
C431       C1286   1.425   1_455  A
C431        C432   1.426       .  A
C431        C440   1.519       .  S
C432        H436   1.075       .  S
C433       C1290   1.389       .  A
C434       C1289   1.389       .  A
C434        H437   1.083       .  S
C438        C439   1.402       .  A
C438       C1299   1.390       .  A
C438        C637   1.481       .  S
C439       C1296   1.425       .  A
C439        H444   1.076       .  S
C440       C1295   1.425   1_455  A
C440        C441   1.426       .  A
C441        C442   1.404       .  A
C441        H445   1.075       .  S
C442        C443   1.388   1_455  A
C442        C726   1.483       .  S
C443       C1294   1.390       .  A
C443        H446   1.083       .  S
Zr447       O449   2.403       .  S
Zr447       O450   2.391       .  S
Zr447       O455   2.366       .  S
Zr447       O457   2.386       .  S
O449        C469   1.281       .  A
O450        C471   1.278       .  A
O451       Zr461   2.488       .  S
O451        C470   1.293       .  A
O452       Zr460   2.485       .  S
O452        C471   1.292       .  A
O453        C470   1.278       .  A
O454       Zr462   2.426       .  S
O454        C469   1.279       .  A
O455       Zr460   2.404       .  S
O455       Zr462   2.385       .  S
O456       Zr461   2.399       .  S
O456        H491   0.966       .  S
O457       Zr460   2.410       .  S
O457       Zr477   2.397       .  S
O457        H494   0.966       .  S
O458       Zr461   2.406       .  S
Zr459       O478   2.397       .  S
Zr459       O474   2.381       .  S
Zr459       O466   2.382       .  S
Zr459       O467   2.364       .  S
Zr459       O484   2.436       .  S
Zr460       O473   2.491       .  S
Zr460       O466   2.405       .  S
Zr460       O467   2.395       .  S
Zr460       O479   2.435       .  S
Zr460       O472   2.434       .  S
Zr461       O487   2.491       .  S
Zr461       O465   2.404       .  S
Zr461       O468   2.392       .  S
Zr461       O463   2.434       .  S
Zr461       O485   2.435       .  S
Zr462       O466   2.398       .  S
Zr462       O464   2.436       .  S
O463        H500   0.990       .  S
O464        H495   0.990       .  S
O464        H509   0.990       .  S
O466        H492   0.966       .  S
O467       Zr477   2.379       .  S
O468        H493   0.966       .  S
C469        C785   1.482       .  S
C470        C515   1.502       .  S
C471        C599   1.502       .  S
O472        H508   0.990       .  S
O473        C475   1.294       .  A
O474        C475   1.277       .  A
C475        C608   1.501       .  S
Zr477       O482   2.434       .  S
Zr477       O480   2.437       .  S
O478        C483   1.281       .  A
O479        H496   0.990       .  S
O479        H511   0.990       .  S
O480        H497   0.990       .  S
O481        H501   0.990       .  S
O481        H510   0.990       .  S
O482        C483   1.282       .  A
O484        H507   0.990       .  S
O485        H499   0.990       .  S
O485        H506   0.990       .  S
O486        C490   1.278       .  A
O487        C490   1.294       .  A
O488        H498   0.990       .  S
C490        C590   1.501       .  S
C513        C514   1.416       .  A
C513        C518   1.417       .  A
C513        C843   1.489       .  S
C514        C515   1.402       .  A
C514        H519   1.083       .  S
C515        C516   1.408       .  A
C516        C517   1.408       .  A
C516        H520   1.080       .  S
C517        C518   1.402       .  A
C517        C550   1.502       .  S
C518        H521   1.083       .  S
Zr522       O524   2.409       .  S
Zr522       O528   2.380       .  S
Zr522       O531   2.368       .  S
Zr522       O533   2.383       .  S
Zr522       O523   2.434       .  S
O523        H579   0.989       .  S
O524        C544   1.282       .  A
O525        C546   1.276       .  A
O526       Zr536   2.489       .  S
O526        C545   1.293       .  A
O527       Zr535   2.486       .  S
O527        C546   1.292       .  A
O528        C545   1.277       .  A
O529       Zr537   2.423       .  S
O529        C544   1.279       .  A
O530       Zr535   2.403       .  S
O531       Zr536   2.401       .  S
O531       Zr537   2.381       .  S
O531        H566   0.966       .  S
O532       Zr535   2.410       .  S
O532        H569   0.966       .  S
O533       Zr536   2.404       .  S
O533       Zr552   2.397       .  S
Zr534       O553   2.402       .  S
Zr534       O561   2.387       .  S
Zr534       O540   2.380       .  S
Zr534       O543   2.369       .  S
Zr534       O559   2.437       .  S
Zr535       O548   2.490       .  S
Zr535       O541   2.406       .  S
Zr535       O542   2.395       .  S
Zr535       O554   2.435       .  S
Zr535       O547   2.435       .  S
Zr536       O562   2.490       .  S
Zr536       O540   2.404       .  S
Zr536       O543   2.395       .  S
Zr536       O538   2.434       .  S
Zr536       O560   2.436       .  S
Zr537       O540   2.397       .  S
Zr537       O563   2.435       .  S
Zr537       O564   2.437       .  S
O538        H575   0.990       .  S
O539        H570   0.990       .  S
O539        H584   0.990       .  S
O541        H567   0.966       .  S
O543       Zr552   2.382       .  S
O543        H568   0.966       .  S
C545        C610   1.500       .  S
C546        C592   1.500       .  S
O547        H583   0.990       .  S
O548        C550   1.294       .  A
O549        C550   1.278       .  A
O551       Zr552   2.439       .  S
Zr552       O557   2.428       .  S
Zr552       O556   2.439       .  S
O553        C558   1.282       .  A
O554        H571   0.990       .  S
O554        H586   0.990       .  S
O555        H572   0.990       .  S
O556        H576   0.990       .  S
O556        H585   0.990       .  S
O557        C558   1.281       .  A
C558        C783   1.481       .  S
O559        H578   0.990       .  S
O560        H574   0.990       .  S
O560        H581   0.990       .  S
O561        C565   1.279       .  A
O562        C565   1.294       .  A
O563        H573   0.990       .  S
C565        C601   1.502       .  S
C588        C589   1.419       .  A
C588       C1449   1.419       .  A
C588        C832   1.497       .  S
C589        C590   1.400       .  A
C589        H594   1.083       .  S
C590        C591   1.406       .  A
C591       C1448   1.407       .  A
C591        H595   1.079       .  S
C592       C1447   1.407       .  A
C592        C593   1.399       .  A
C593       C1444   1.419       .  A
C593        H596   1.083       .  S
C597        C598   1.417       .  A
C597        C602   1.417       .  A
C597        C846   1.489       .  S
C598        C599   1.402       .  A
C598        H603   1.083       .  S
C599        C600   1.408       .  A
C600        C601   1.408       .  A
C600        H604   1.079       .  S
C601        C602   1.402       .  A
C602        H605   1.083       .  S
C606        C607   1.419       .  A
C606       C1467   1.419       .  A
C606        C829   1.497       .  S
C607        C608   1.400       .  A
C607        H612   1.083       .  S
C608        C609   1.407       .  A
C609       C1466   1.407       .  A
C609        H613   1.080       .  S
C610       C1465   1.407       .  A
C610        C611   1.399       .  A
C611       C1462   1.419   1_455  A
C611        H614   1.083       .  S
Zr615       O617   2.396       .  S
Zr615       O621   2.383       .  S
Zr615       O624   2.368       .  S
Zr615       O626   2.382       .  S
Zr615       O616   2.433       .  S
O616        H672   0.989       .  S
O616        H680   0.990       .  S
O617        C637   1.280       .  A
O618        C639   1.277       .  A
O619       Zr629   2.489       .  S
O619        C638   1.293       .  A
O620       Zr628   2.486       .  S
O620        C639   1.292       .  A
O621        C638   1.278       .  A
O622       Zr630   2.430       .  S
O622        C637   1.280       .  A
O623       Zr628   2.402       .  S
O624       Zr629   2.397       .  S
O624       Zr630   2.379       .  S
O624        H659   0.966       .  S
O625       Zr628   2.409       .  S
O625        H662   0.966       .  S
O626       Zr629   2.405       .  S
O626       Zr645   2.399       .  S
Zr627       O646   2.401       .  S
Zr627       O654   2.383       .  S
Zr627       O633   2.381       .  S
Zr627       O636   2.368       .  S
Zr627       O652   2.437       .  S
Zr628       O641   2.490       .  S
Zr628       O634   2.405       .  S
Zr628       O635   2.395       .  S
Zr628       O647   2.436       .  S
Zr628       O640   2.434       .  S
Zr629       O655   2.490       .  S
Zr629       O633   2.404       .  S
Zr629       O636   2.393       .  S
Zr629       O631   2.434       .  S
Zr629       O653   2.435       .  S
Zr630       O633   2.399       .  S
Zr630       O656   2.435       .  S
Zr630       O657   2.438       .  S
O631        H668   0.990       .  S
O632        H663   0.990       .  S
O632        H677   0.990       .  S
O634        H660   0.966       .  S
O636       Zr645   2.381       .  S
O636        H661   0.966       .  S
C638        C776   1.501       .  S
C639        C758   1.501       .  S
O640        H676   0.990       .  S
O641        C643   1.294       .  A
O642        C643   1.278       .  A
C643        C683   1.501       .  S
O644       Zr645   2.439       .  S
O644        H673   0.990       .  S
Zr645       O650   2.430       .  S
Zr645       O649   2.438       .  S
O646        C651   1.282       .  A
O647        H664   0.990       .  S
O647        H679   0.990       .  S
O648        H665   0.990       .  S
O649        H669   0.990       .  S
O649        H678   0.990       .  S
O650        C651   1.281       .  A
C651        C792   1.481       .  S
O652        H671   0.990       .  S
O652        H675   0.990       .  S
O653        H667   0.990       .  S
O653        H674   0.990       .  S
O654        C658   1.278       .  A
O655        C658   1.294       .  A
O656        H666   0.990       .  S
O657        H670   0.990       .  S
C658        C767   1.501       .  S
C681        C682   1.419       .  A
C681        C686   1.418       .  A
C681        C815   1.495       .  S
C682        C683   1.401       .  A
C682        H687   1.083       .  S
C683        C684   1.407       .  A
C684        C685   1.407       .  A
C684        H688   1.080       .  S
C685        C686   1.400       .  A
C685        C713   1.500       .  S
C686        H689   1.083       .  S
Zr690       O692   2.406       .  S
Zr690       O693   2.387       .  S
Zr690       O698   2.366       .  S
Zr690       O700   2.386       .  S
Zr690       O691   2.433       .  S
O691        H747   0.989       .  S
O691        H755   0.990       .  S
O692        C712   1.282       .  A
O693        C714   1.277       .  A
O694       Zr704   2.488       .  S
O694        C713   1.293       .  A
O695       Zr703   2.486       .  S
O695        C714   1.292       .  A
O696        C713   1.277       .  A
O697       Zr705   2.425       .  S
O697        C712   1.279       .  A
O698       Zr703   2.403       .  S
O698       Zr705   2.384       .  S
O699       Zr704   2.400       .  S
O699        H734   0.966       .  S
O700       Zr703   2.410       .  S
O700       Zr720   2.394       .  S
O700        H737   0.966       .  S
O701       Zr704   2.405       .  S
Zr702       O721   2.408       .  S
Zr702       O717   2.382       .  S
Zr702       O709   2.384       .  S
Zr702       O710   2.364       .  S
Zr702       O727   2.438       .  S
Zr703       O716   2.491       .  S
Zr703       O709   2.405       .  S
Zr703       O710   2.395       .  S
Zr703       O722   2.435       .  S
Zr703       O715   2.435       .  S
Zr704       O730   2.490       .  S
Zr704       O708   2.403       .  S
Zr704       O711   2.396       .  S
Zr704       O706   2.434       .  S
Zr704       O728   2.436       .  S
Zr705       O709   2.397       .  S
Zr705       O732   2.437       .  S
Zr705       O707   2.436       .  S
O706        H743   0.990       .  S
O707        H738   0.990       .  S
O707        H752   0.990       .  S
O709        H735   0.966       .  S
O710       Zr720   2.381       .  S
O711        H736   0.966       .  S
C712        C794   1.482       .  S
C714        C769   1.500       .  S
O715        H751   0.990       .  S
O716        C718   1.294       .  A
O717        C718   1.277       .  A
C718        C778   1.501       .  S
O719       Zr720   2.439       .  S
O719        H748   0.990       .  S
Zr720       O725   2.426       .  S
Zr720       O723   2.436       .  S
O721        C726   1.284       .  A
O722        H739   0.990       .  S
O722        H754   0.990       .  S
O723        H740   0.990       .  S
O724        H744   0.990       .  S
O724        H753   0.990       .  S
O725        C726   1.280       .  A
O727        H746   0.990       .  S
O727        H750   0.990       .  S
O728        H742   0.990       .  S
O728        H749   0.990       .  S
O729        C733   1.278       .  A
O730        C733   1.294       .  A
O731        H741   0.990       .  S
O732        H745   0.990       .  S
C733        C760   1.501       .  S
C756        C757   1.418       .  A
C756       C1617   1.418       .  A
C756        C801   1.494       .  S
C757        C758   1.401       .  A
C757        H762   1.083       .  S
C758       C1615   1.407       .  A
C759       C1614   1.407       .  A
C759        C760   1.407   1_655  A
C759        H763   1.079       .  S
C760        C761   1.400       .  A
C761       C1612   1.418   1_455  A
C761        H764   1.083       .  S
C765        C766   1.419       .  A
C765        C770   1.418       .  A
C765        C818   1.496       .  S
C766        C767   1.401       .  A
C766        H771   1.083       .  S
C767        C768   1.407       .  A
C768        C769   1.407       .  A
C768        H772   1.079       .  S
C769        C770   1.400       .  A
C770        H773   1.083       .  S
C774       C1631   1.418   1_455  A
C774        C779   1.418       .  A
C774        C804   1.495       .  S
C775       C1630   1.418       .  A
C775        C776   1.401       .  A
C775        H780   1.083       .  S
C776       C1633   1.407       .  A
C777       C1632   1.407       .  A
C777        C778   1.407   1_655  A
C777        H781   1.081       .  S
C778        C779   1.400       .  A
C779        H782   1.083       .  S
C783        C788   1.403       .  A
C784        H789   1.083       .  S
C785        C786   1.404       .  A
C786        C787   1.426   1_565  A
C786        H790   1.076   1_565  S
C787        C788   1.425   1_545  A
C787        C796   1.519       .  S
C788        H791   1.075   1_565  S
C792        C793   1.390       .  A
C792        C797   1.403       .  A
C793        C794   1.389       .  A
C793        H798   1.083       .  S
C794        C795   1.403       .  A
C795        C796   1.426       .  A
C795        H799   1.075       .  S
C796        C797   1.425       .  A
C797        H800   1.076       .  S
C801        C802   1.415       .  A
C801       C1662   1.415       .  A
C802        C803   1.411       .  A
C802        C807   1.452       .  S
C803       C1660   1.416       .  A
C803        C810   1.452       .  S
C804       C1659   1.416   1_455  A
C804        C805   1.416       .  A
C805        C806   1.411       .  A
C805        C808   1.452       .  S
C806       C1657   1.415       .  A
C806        C809   1.452       .  S
C807        N814   1.157       .  T
C808        N813   1.157       .  T
C809        N811   1.157       .  T
C810        N812   1.157       .  T
C815        C816   1.416       .  A
C815        C820   1.416       .  A
C816        C817   1.410       .  A
C816        C821   1.452       .  S
C817        C818   1.416       .  A
C817        C824   1.452       .  S
C818        C819   1.416       .  A
C819        C820   1.411       .  A
C819        C822   1.452       .  S
C820        C823   1.452       .  S
C821        N828   1.157       .  T
C822        N827   1.157       .  T
C823        N825   1.157       .  T
C824        N826   1.157       .  T
C829        C830   1.417       .  A
C829       C1690   1.417       .  A
C830        C831   1.411       .  A
C830        C835   1.452       .  S
C831        C832   1.417       .  A
C831        C838   1.452       .  S
C832       C1689   1.417       .  A
C833       C1688   1.417       .  A
C833        C834   1.410       .  A
C833        C836   1.453       .  S
C834       C1685   1.417       .  A
C834        C837   1.453       .  S
C835        N842   1.157       .  T
C836        N841   1.157       .  T
C837        N839   1.157       .  T
C838        N840   1.157       .  T
C843        C844   1.413       .  A
C843        C848   1.413       .  A
C844        C845   1.411       .  A
C844        C849   1.451       .  S
C845        C846   1.413       .  A
C845        C852   1.451       .  S
C846        C847   1.413       .  A
C847        C848   1.412       .  A
C847        C850   1.451       .  S
C848        C851   1.451       .  S
C849        N856   1.157       .  T
C850        N855   1.157       .  T
C851        N853   1.157       .  T
C852        N854   1.157       .  T
C857       C1286   1.402       .  A
C857        C862   1.390   1_655  A
C857       C1339   1.481       .  S
C858       C1285   1.402   1_554  A
C858        H863   1.076       .  S
C859        C860   1.426       .  A
C859        C868   1.519       .  S
C860       C1289   1.404   1_554  A
C860        H864   1.075       .  S
C861       C1288   1.404       .  A
C861       C1400   1.483       .  S
C862        H865   1.083       .  S
C866        C867   1.402       .  A
C866       C1065   1.481       .  S
C867        H872   1.076       .  S
C868        C869   1.426       .  A
C869        C870   1.404       .  A
C869        H873   1.075       .  S
C870        C871   1.388       .  A
C870       C1154   1.483       .  S
C871        H874   1.083       .  S
Zr875       O877   2.403       .  S
Zr875       O878   2.391       .  S
Zr875      O1309   2.386   1_554  S
Zr875       O883   2.366       .  S
Zr875      O1312   2.368   1_554  S
Zr875       O885   2.386       .  S
Zr875      O1314   2.384   1_554  S
Zr875      O1304   2.433   1_554  S
O876      Zr1303   2.433       .  S
O876       H1360   0.989       .  S
O876       H1368   0.990       .  S
O877        C897   1.281       .  A
O878        C899   1.278       .  A
O879       Zr889   2.488       .  S
O879        C898   1.293       .  A
O880       Zr888   2.485       .  S
O880        C899   1.292       .  A
O881      Zr1303   2.386       .  S
O881        C898   1.278       .  A
O882       Zr890   2.426       .  S
O882        C897   1.279       .  A
O883       Zr888   2.404       .  S
O883       Zr890   2.385       .  S
O884      Zr1303   2.368       .  S
O884       Zr889   2.399       .  S
O884      Zr1318   2.380       .  S
O884        H919   0.966       .  S
O885       Zr888   2.410       .  S
O885       Zr905   2.397       .  S
O885        H922   0.966       .  S
O886      Zr1303   2.384       .  S
O886       Zr889   2.406       .  S
O886      Zr1333   2.399       .  S
Zr887       O906   2.397       .  S
Zr887      O1342   2.382   1_554  S
Zr887       O902   2.381       .  S
Zr887      O1321   2.380   1_554  S
Zr887       O894   2.382       .  S
Zr887       O895   2.364       .  S
Zr887      O1324   2.368   1_554  S
Zr887       O912   2.436       .  S
Zr888       O901   2.491       .  S
Zr888       O894   2.405       .  S
Zr888       O895   2.395       .  S
Zr888       O907   2.436       .  S
Zr888       O900   2.434       .  S
Zr889       O915   2.491       .  S
Zr889       O893   2.404       .  S
Zr889       O896   2.392       .  S
Zr889       O891   2.434       .  S
Zr889       O913   2.435       .  S
Zr890      O1312   2.380   1_554  S
Zr890      O1321   2.398   1_554  S
Zr890       O894   2.398       .  S
Zr890      O1344   2.435   1_554  S
Zr890      O1345   2.438   1_554  S
Zr890       O892   2.436       .  S
O891        H928   0.990       .  S
O892        H923   0.990       .  S
O892        H937   0.990       .  S
O893      Zr1315   2.380       .  S
O893      Zr1318   2.398       .  S
O894        H920   0.966       .  S
O895       Zr905   2.379       .  S
O896      Zr1315   2.368       .  S
O896      Zr1333   2.380       .  S
O896        H921   0.966       .  S
C897       C1213   1.482       .  S
C898        C943   1.502       .  S
C899       C1027   1.502       .  S
O900        H936   0.990       .  S
O901        C903   1.294       .  A
O902        C903   1.277       .  A
C903       C1036   1.501       .  S
O904      Zr1333   2.439       .  S
O904       H1361   0.990       .  S
Zr905       O910   2.434   1_554  S
Zr905      O1314   2.399   1_554  S
Zr905      O1324   2.380   1_554  S
Zr905      O1332   2.439       .  S
Zr905       O908   2.437       .  S
Zr905      O1337   2.438   1_554  S
O906        C911   1.281   1_554  A
O907        H924   0.990       .  S
O907        H939   0.990       .  S
O908        H925   0.990       .  S
O909      Zr1333   2.438       .  S
O909        H929   0.990       .  S
O909        H938   0.990       .  S
O910        C911   1.282       .  A
C911       C1285   1.481       .  S
O912       H1359   0.990   1_554  S
O912        H935   0.990       .  S
O913        H927   0.990       .  S
O913        H934   0.990       .  S
O914      Zr1315   2.382       .  S
O914        C918   1.278       .  A
O915        C918   1.294       .  A
O916      Zr1318   2.435       .  S
O916        H926   0.990       .  S
O917      Zr1318   2.438       .  S
O917       H1358   0.990       .  S
C918       C1018   1.501       .  S
H930       O1345   0.990   1_554  S
H931       O1340   0.990       .  S
H932       O1304   0.989   1_554  S
H933       O1332   0.990       .  S
H940       O1304   0.990   1_554  S
C941        C942   1.416       .  A
C941        C946   1.417       .  A
C941       C1271   1.489       .  S
C942        C943   1.402       .  A
C942        H947   1.083       .  S
C943        C944   1.408       .  A
C944        C945   1.408       .  A
C944        H948   1.080       .  S
C945        C946   1.402       .  A
C945        C978   1.502       .  S
C946        H949   1.083       .  S
Zr950       O952   2.409   1_554  S
Zr950      O1381   2.385   1_554  S
Zr950       O956   2.380       .  S
Zr950      O1386   2.366   1_554  S
Zr950       O959   2.368       .  S
Zr950      O1388   2.386   1_554  S
Zr950       O961   2.383       .  S
Zr950       O951   2.434       .  S
O951       H1007   0.989   1_554  S
O951       H1443   0.990   1_554  S
O952        C972   1.282       .  A
O953      Zr1378   2.385       .  S
O953        C974   1.276       .  A
O954       Zr964   2.489       .  S
O954        C973   1.293       .  A
O955       Zr963   2.486       .  S
O955        C974   1.292       .  A
O956        C973   1.277       .  A
O957       Zr965   2.423   1_556  S
O957        C972   1.279       .  A
O958      Zr1378   2.366       .  S
O958       Zr963   2.403       .  S
O958      Zr1393   2.385       .  S
O959       Zr964   2.401       .  S
O959       Zr965   2.381       .  S
O959        H994   0.966       .  S
O960      Zr1378   2.386       .  S
O960       Zr963   2.410       .  S
O960      Zr1408   2.395       .  S
O960        H997   0.966       .  S
O961       Zr964   2.404       .  S
O961       Zr980   2.397       .  S
Zr962       O981   2.402       .  S
Zr962       O989   2.387       .  S
Zr962      O1405   2.386   1_554  S
Zr962       O968   2.380       .  S
Zr962      O1397   2.383   1_554  S
Zr962      O1398   2.365   1_554  S
Zr962       O971   2.369       .  S
Zr962       O987   2.437       .  S
Zr963       O976   2.490       .  S
Zr963       O969   2.406       .  S
Zr963       O970   2.395       .  S
Zr963       O982   2.435       .  S
Zr963       O975   2.435       .  S
Zr964       O990   2.490       .  S
Zr964       O968   2.404       .  S
Zr964       O971   2.395       .  S
Zr964       O966   2.434       .  S
Zr964       O988   2.436       .  S
Zr965      O1386   2.385   1_554  S
Zr965       O968   2.397       .  S
Zr965      O1397   2.396   1_554  S
Zr965       O991   2.435       .  S
Zr965       O992   2.437       .  S
Zr965      O1395   2.436   1_554  S
O966       H1003   0.990       .  S
O967      Zr1393   2.436       .  S
O967        H998   0.990       .  S
O967       H1012   0.990       .  S
O969      Zr1390   2.383       .  S
O969      Zr1393   2.396       .  S
O969        H995   0.966       .  S
O970      Zr1390   2.365       .  S
O970      Zr1408   2.380       .  S
O971       Zr980   2.382       .  S
O971        H996   0.966       .  S
C972       C1289   1.483       .  S
C973       C1038   1.500       .  S
C974       C1020   1.500       .  S
O975       H1011   0.990       .  S
O976        C978   1.294       .  A
O977      Zr1390   2.386       .  S
O977        C978   1.278       .  A
O979       Zr980   2.439       .  S
O979       H1436   0.990       .  S
Zr980       O985   2.428       .  S
Zr980      O1388   2.395   1_554  S
Zr980      O1398   2.380   1_554  S
Zr980      O1411   2.436   1_554  S
Zr980       O984   2.439       .  S
O981        C986   1.282       .  A
O982        H999   0.990       .  S
O982       H1014   0.990       .  S
O983      Zr1408   2.436       .  S
O983       H1000   0.990       .  S
O984       H1004   0.990       .  S
O984       H1013   0.990       .  S
O985        C986   1.281       .  A
C986       C1211   1.481       .  S
O987       H1006   0.990       .  S
O987       H1438   0.990   1_554  S
O988       H1002   0.990       .  S
O988       H1009   0.990       .  S
O989        C993   1.279       .  A
O990        C993   1.294       .  A
O991       H1001   0.990       .  S
O992       H1433   0.990   1_554  S
C993       C1029   1.502       .  S
H1005      O1420   0.990       .  S
H1008      O1407   0.990       .  S
H1010      O1415   0.990       .  S
H1015      O1379   0.990       .  S
C1016      C1017   1.419   1_455  A
C1016      C1260   1.497       .  S
C1017      C1018   1.400       .  A
C1017      H1022   1.083       .  S
C1018      C1019   1.406   1_655  A
C1019      H1023   1.079       .  S
C1020      C1021   1.399       .  A
C1021      H1024   1.083       .  S
C1025      C1026   1.417       .  A
C1025      C1030   1.417       .  A
C1025      C1274   1.489       .  S
C1026      C1027   1.402       .  A
C1026      H1031   1.083       .  S
C1027      C1028   1.408       .  A
C1028      C1029   1.408       .  A
C1028      H1032   1.079       .  S
C1029      C1030   1.402       .  A
C1030      H1033   1.083       .  S
C1034      C1035   1.419   1_455  A
C1034      C1257   1.497       .  S
C1035      C1036   1.400       .  A
C1035      H1040   1.083       .  S
C1036      C1037   1.407   1_655  A
C1037      H1041   1.080       .  S
C1038      C1039   1.399       .  A
C1039      H1042   1.083       .  S
Zr1043     O1045   2.395       .  S
Zr1043     O1474   2.388   1_554  S
Zr1043     O1049   2.383       .  S
Zr1043     O1479   2.366   1_554  S
Zr1043     O1052   2.368       .  S
Zr1043     O1481   2.384   1_554  S
Zr1043     O1054   2.382       .  S
Zr1043     O1044   2.433       .  S
O1044      H1100   0.989       .  S
O1044      H1108   0.990       .  S
O1045      C1065   1.280       .  A
O1046     Zr1471   2.388       .  S
O1046      C1067   1.277       .  A
O1047     Zr1057   2.489       .  S
O1047      C1066   1.293       .  A
O1048     Zr1056   2.486       .  S
O1048      C1067   1.292       .  A
O1049      C1066   1.278       .  A
O1050     Zr1058   2.430       .  S
O1050      C1065   1.280       .  A
O1051     Zr1471   2.366       .  S
O1051     Zr1056   2.402       .  S
O1051     Zr1486   2.383       .  S
O1052     Zr1057   2.397       .  S
O1052     Zr1058   2.379       .  S
O1052      H1087   0.966       .  S
O1053     Zr1471   2.384       .  S
O1053     Zr1056   2.409       .  S
O1053     Zr1501   2.396       .  S
O1053      H1090   0.966       .  S
O1054     Zr1057   2.405       .  S
O1054     Zr1073   2.399       .  S
Zr1055     O1074   2.401       .  S
Zr1055     O1082   2.383       .  S
Zr1055     O1498   2.383   1_554  S
Zr1055     O1061   2.381       .  S
Zr1055     O1490   2.384   1_554  S
Zr1055     O1491   2.364   1_554  S
Zr1055     O1064   2.368       .  S
Zr1055     O1080   2.437       .  S
Zr1056     O1069   2.490       .  S
Zr1056     O1062   2.405       .  S
Zr1056     O1063   2.395       .  S
Zr1056     O1075   2.436       .  S
Zr1056     O1068   2.434       .  S
Zr1057     O1083   2.490       .  S
Zr1057     O1061   2.404       .  S
Zr1057     O1064   2.393       .  S
Zr1057     O1059   2.434       .  S
Zr1057     O1081   2.435       .  S
Zr1058     O1479   2.383   1_554  S
Zr1058     O1061   2.399       .  S
Zr1058     O1490   2.399   1_554  S
Zr1058     O1084   2.435       .  S
Zr1058     O1085   2.438       .  S
Zr1058     O1488   2.436   1_554  S
O1059      H1096   0.990       .  S
O1060     Zr1486   2.436       .  S
O1060      H1091   0.990       .  S
O1060      H1105   0.990       .  S
O1062     Zr1483   2.384       .  S
O1062     Zr1486   2.399       .  S
O1062      H1088   0.966       .  S
O1063     Zr1483   2.364       .  S
O1063     Zr1501   2.380       .  S
O1064     Zr1073   2.381       .  S
O1064      H1089   0.966       .  S
C1066      C1204   1.501       .  S
C1067      C1186   1.501       .  S
O1068      H1104   0.990       .  S
O1069      C1071   1.294       .  A
O1070     Zr1483   2.383       .  S
O1070      C1071   1.278       .  A
C1071      C1111   1.501       .  S
O1072     Zr1073   2.439       .  S
O1072      H1101   0.990       .  S
Zr1073     O1078   2.430       .  S
Zr1073     O1481   2.396   1_554  S
Zr1073     O1491   2.380   1_554  S
Zr1073     O1504   2.437   1_554  S
Zr1073     O1077   2.438       .  S
O1074      C1079   1.282       .  A
O1075      H1092   0.990       .  S
O1075      H1107   0.990       .  S
O1076     Zr1501   2.437       .  S
O1076      H1093   0.990       .  S
O1077      H1097   0.990       .  S
O1077      H1106   0.990       .  S
O1078      C1079   1.281       .  A
C1079      C1220   1.481       .  S
O1080      H1099   0.990       .  S
O1080      H1103   0.990   1_554  S
O1081      H1095   0.990       .  S
O1081      H1102   0.990       .  S
O1082      C1086   1.278       .  A
O1083      C1086   1.294       .  A
O1084      H1094   0.990       .  S
O1085      H1098   0.990       .  S
C1086      C1195   1.501       .  S
C1109      C1110   1.419       .  A
C1109      C1114   1.418       .  A
C1109      C1243   1.495       .  S
C1110      C1111   1.401       .  A
C1110      H1115   1.083       .  S
C1111      C1112   1.407       .  A
C1112      C1113   1.407       .  A
C1112      H1116   1.080       .  S
C1113      C1114   1.400       .  A
C1113      C1141   1.500       .  S
C1114      H1117   1.083       .  S
Zr1118     O1120   2.406       .  S
Zr1118     O1121   2.387       .  S
Zr1118     O1552   2.381   1_554  S
Zr1118     O1126   2.366       .  S
Zr1118     O1555   2.368   1_554  S
Zr1118     O1128   2.386       .  S
Zr1118     O1557   2.383   1_554  S
Zr1118     O1119   2.433       .  S
O1119      H1175   0.989       .  S
O1119      H1183   0.990       .  S
O1120      C1140   1.282       .  A
O1121      C1142   1.277       .  A
O1122     Zr1132   2.488       .  S
O1122      C1141   1.293       .  A
O1123     Zr1131   2.486       .  S
O1123      C1142   1.292       .  A
O1124     Zr1546   2.381       .  S
O1124      C1141   1.277       .  A
O1125     Zr1133   2.425       .  S
O1125      C1140   1.279       .  A
O1126     Zr1131   2.403       .  S
O1126     Zr1133   2.384       .  S
O1127     Zr1546   2.368       .  S
O1127     Zr1132   2.400       .  S
O1127     Zr1561   2.380       .  S
O1127      H1162   0.966       .  S
O1128     Zr1131   2.410       .  S
O1128     Zr1148   2.394       .  S
O1128      H1165   0.966       .  S
O1129     Zr1546   2.383       .  S
O1129     Zr1132   2.405       .  S
O1129     Zr1576   2.397       .  S
Zr1130     O1149   2.408       .  S
Zr1130     O1585   2.383   1_554  S
Zr1130     O1145   2.382       .  S
Zr1130     O1564   2.381   1_554  S
Zr1130     O1137   2.384       .  S
Zr1130     O1138   2.364       .  S
Zr1130     O1567   2.369   1_554  S
Zr1130     O1155   2.438       .  S
Zr1131     O1144   2.491       .  S
Zr1131     O1137   2.405       .  S
Zr1131     O1138   2.395       .  S
Zr1131     O1150   2.435       .  S
Zr1131     O1143   2.435       .  S
Zr1132     O1158   2.490       .  S
Zr1132     O1136   2.403       .  S
Zr1132     O1139   2.396       .  S
Zr1132     O1134   2.434       .  S
Zr1132     O1156   2.436       .  S
Zr1133     O1555   2.380   1_554  S
Zr1133     O1564   2.397   1_554  S
Zr1133     O1137   2.397       .  S
Zr1133     O1587   2.435   1_554  S
Zr1133     O1160   2.437       .  S
Zr1133     O1135   2.436       .  S
O1134      H1171   0.990       .  S
O1135      H1166   0.990       .  S
O1135      H1180   0.990       .  S
O1136     Zr1558   2.381       .  S
O1136     Zr1561   2.397       .  S
O1137      H1163   0.966       .  S
O1138     Zr1148   2.381       .  S
O1139     Zr1558   2.369       .  S
O1139     Zr1576   2.383       .  S
O1139      H1164   0.966       .  S
C1140      C1222   1.482       .  S
C1142      C1197   1.500       .  S
O1143      H1179   0.990       .  S
O1144      C1146   1.294       .  A
O1145      C1146   1.277       .  A
C1146      C1206   1.501       .  S
O1147     Zr1148   2.439       .  S
O1147      H1176   0.990       .  S
Zr1148     O1153   2.426       .  S
Zr1148     O1557   2.397   1_554  S
Zr1148     O1567   2.383   1_554  S
Zr1148     O1151   2.436       .  S
Zr1148     O1580   2.439   1_554  S
O1149      C1154   1.284       .  A
O1150      H1167   0.990       .  S
O1150      H1182   0.990       .  S
O1151      H1168   0.990       .  S
O1152     Zr1576   2.439       .  S
O1152      H1172   0.990       .  S
O1152      H1181   0.990       .  S
O1153      C1154   1.280       .  A
O1155      H1174   0.990       .  S
O1155      H1178   0.990       .  S
O1156      H1170   0.990       .  S
O1156      H1177   0.990       .  S
O1157     Zr1558   2.383       .  S
O1157      C1161   1.278       .  A
O1158      C1161   1.294       .  A
O1159     Zr1561   2.435       .  S
O1159      H1169   0.990       .  S
O1160      H1173   0.990       .  S
C1161      C1188   1.501       .  S
C1184      C1185   1.418       .  A
C1184      C1229   1.494   1_655  S
C1185      C1186   1.401       .  A
C1185      H1190   1.083       .  S
C1187      C1188   1.407       .  A
C1187      H1191   1.079       .  S
C1188      C1189   1.400       .  A
C1189      H1192   1.083       .  S
C1193      C1194   1.419       .  A
C1193      C1198   1.418       .  A
C1193      C1246   1.496       .  S
C1194      C1195   1.401       .  A
C1194      H1199   1.083       .  S
C1195      C1196   1.407       .  A
C1196      C1197   1.407       .  A
C1196      H1200   1.079       .  S
C1197      C1198   1.400       .  A
C1198      H1201   1.083       .  S
C1202      C1207   1.418       .  A
C1202      C1232   1.495       .  S
C1203      C1204   1.401       .  A
C1203      H1208   1.083       .  S
C1205      C1206   1.407       .  A
C1205      H1209   1.081       .  S
C1206      C1207   1.400       .  A
C1207      H1210   1.083       .  S
C1211      C1640   1.389   1_554  A
C1211      C1216   1.402       .  A
C1212      C1639   1.389       .  A
C1212      C1641   1.390       .  A
C1212      H1217   1.083       .  S
C1213      C1640   1.390   1_554  A
C1213      C1214   1.404       .  A
C1214      C1215   1.426   1_565  A
C1214      H1218   1.076   1_565  S
C1215      C1216   1.425   1_545  A
C1215      C1224   1.519       .  S
C1216      H1219   1.075   1_565  S
C1220      C1221   1.390       .  A
C1220      C1225   1.403       .  A
C1221      C1222   1.389       .  A
C1221      H1226   1.083       .  S
C1222      C1223   1.403       .  A
C1223      C1224   1.426       .  A
C1223      H1227   1.075       .  S
C1224      C1225   1.425       .  A
C1225      H1228   1.076       .  S
C1229      C1230   1.415   1_455  A
C1230      C1231   1.411       .  A
C1230      C1235   1.452       .  S
C1231      C1238   1.452       .  S
C1232      C1233   1.416       .  A
C1233      C1234   1.411       .  A
C1233      C1236   1.452       .  S
C1234      C1237   1.452       .  S
C1235      N1242   1.157       .  T
C1236      N1241   1.157       .  T
C1237      N1239   1.157       .  T
C1238      N1240   1.157       .  T
C1243      C1244   1.416       .  A
C1243      C1248   1.416       .  A
C1244      C1245   1.410       .  A
C1244      C1249   1.452       .  S
C1245      C1246   1.416       .  A
C1245      C1252   1.452       .  S
C1246      C1247   1.416       .  A
C1247      C1248   1.411       .  A
C1247      C1250   1.452       .  S
C1248      C1251   1.452       .  S
C1249      N1256   1.157       .  T
C1250      N1255   1.157       .  T
C1251      N1253   1.157       .  T
C1252      N1254   1.157       .  T
C1257      C1258   1.417   1_455  A
C1258      C1259   1.411       .  A
C1258      C1263   1.452       .  S
C1259      C1260   1.417   1_655  A
C1259      C1266   1.452       .  S
C1261      C1262   1.410       .  A
C1261      C1264   1.453       .  S
C1262      C1265   1.453       .  S
C1263      N1270   1.157       .  T
C1264      N1269   1.157       .  T
C1265      N1267   1.157       .  T
C1266      N1268   1.157       .  T
C1271      C1272   1.413       .  A
C1271      C1276   1.413       .  A
C1272      C1273   1.411       .  A
C1272      C1277   1.451       .  S
C1273      C1274   1.413       .  A
C1273      C1280   1.451       .  S
C1274      C1275   1.413       .  A
C1275      C1276   1.412       .  A
C1275      C1278   1.451       .  S
C1276      C1279   1.451       .  S
C1277      N1284   1.157       .  T
C1278      N1283   1.157       .  T
C1279      N1281   1.157       .  T
C1280      N1282   1.157       .  T
C1285      C1290   1.390   1_655  A
C1286      H1291   1.076       .  S
C1287      C1288   1.426       .  A
C1287      C1296   1.519       .  S
C1288      H1292   1.075       .  S
C1290      H1293   1.083       .  S
C1294      C1295   1.402       .  A
C1294      C1493   1.481       .  S
C1295      H1300   1.076       .  S
C1296      C1297   1.426       .  A
C1297      C1298   1.404       .  A
C1297      H1301   1.075       .  S
C1298      C1299   1.388       .  A
C1298      C1582   1.483       .  S
C1299      H1302   1.083       .  S
Zr1303     O1305   2.403       .  S
Zr1303     O1306   2.391       .  S
Zr1303     O1311   2.366       .  S
Zr1303     O1313   2.386       .  S
O1305      C1325   1.281       .  A
O1306      C1327   1.278       .  A
O1307     Zr1317   2.488       .  S
O1307      C1326   1.293       .  A
O1308     Zr1316   2.485       .  S
O1308      C1327   1.292       .  A
O1309      C1326   1.278       .  A
O1310     Zr1318   2.426       .  S
O1310      C1325   1.279       .  A
O1311     Zr1316   2.404       .  S
O1311     Zr1318   2.385       .  S
O1312     Zr1317   2.399       .  S
O1312      H1347   0.966       .  S
O1313     Zr1316   2.410       .  S
O1313     Zr1333   2.397       .  S
O1313      H1350   0.966       .  S
O1314     Zr1317   2.406       .  S
Zr1315     O1334   2.397       .  S
Zr1315     O1330   2.381       .  S
Zr1315     O1322   2.382       .  S
Zr1315     O1323   2.364       .  S
Zr1315     O1340   2.436       .  S
Zr1316     O1329   2.491       .  S
Zr1316     O1322   2.405       .  S
Zr1316     O1323   2.395       .  S
Zr1316     O1335   2.435       .  S
Zr1316     O1328   2.434       .  S
Zr1317     O1343   2.491       .  S
Zr1317     O1321   2.404       .  S
Zr1317     O1324   2.392       .  S
Zr1317     O1319   2.434       .  S
Zr1317     O1341   2.435       .  S
Zr1318     O1322   2.398       .  S
Zr1318     O1320   2.436       .  S
O1319      H1356   0.990       .  S
O1320      H1351   0.990       .  S
O1320      H1365   0.990       .  S
O1322      H1348   0.966       .  S
O1323     Zr1333   2.379       .  S
O1324      H1349   0.966       .  S
C1325      C1641   1.482       .  S
C1326      C1371   1.502       .  S
C1327      C1455   1.502       .  S
O1328      H1364   0.990       .  S
O1329      C1331   1.294       .  A
O1330      C1331   1.277       .  A
C1331      C1464   1.501       .  S
Zr1333     O1338   2.434       .  S
Zr1333     O1336   2.437       .  S
O1334      C1339   1.281       .  A
O1335      H1352   0.990       .  S
O1335      H1367   0.990       .  S
O1336      H1353   0.990       .  S
O1337      H1357   0.990       .  S
O1337      H1366   0.990       .  S
O1338      C1339   1.282       .  A
O1340      H1363   0.990       .  S
O1341      H1355   0.990       .  S
O1341      H1362   0.990       .  S
O1342      C1346   1.278       .  A
O1343      C1346   1.294       .  A
O1344      H1354   0.990       .  S
C1346      C1446   1.501       .  S
C1369      C1370   1.416       .  A
C1369      C1374   1.417       .  A
C1369      C1699   1.489       .  S
C1370      C1371   1.402       .  A
C1370      H1375   1.083       .  S
C1371      C1372   1.408       .  A
C1372      C1373   1.408       .  A
C1372      H1376   1.080       .  S
C1373      C1374   1.402       .  A
C1373      C1406   1.502       .  S
C1374      H1377   1.083       .  S
Zr1378     O1380   2.409       .  S
Zr1378     O1384   2.380       .  S
Zr1378     O1387   2.368       .  S
Zr1378     O1389   2.383       .  S
Zr1378     O1379   2.434       .  S
O1379      H1435   0.989       .  S
O1380      C1400   1.282       .  A
O1381      C1402   1.276       .  A
O1382     Zr1392   2.489       .  S
O1382      C1401   1.293       .  A
O1383     Zr1391   2.486       .  S
O1383      C1402   1.292       .  A
O1384      C1401   1.277       .  A
O1385     Zr1393   2.423       .  S
O1385      C1400   1.279       .  A
O1386     Zr1391   2.403       .  S
O1387     Zr1392   2.401       .  S
O1387     Zr1393   2.381       .  S
O1387      H1422   0.966       .  S
O1388     Zr1391   2.410       .  S
O1388      H1425   0.966       .  S
O1389     Zr1392   2.404       .  S
O1389     Zr1408   2.397       .  S
Zr1390     O1409   2.402       .  S
Zr1390     O1417   2.387       .  S
Zr1390     O1396   2.380       .  S
Zr1390     O1399   2.369       .  S
Zr1390     O1415   2.437       .  S
Zr1391     O1404   2.490       .  S
Zr1391     O1397   2.406       .  S
Zr1391     O1398   2.395       .  S
Zr1391     O1410   2.435       .  S
Zr1391     O1403   2.435       .  S
Zr1392     O1418   2.490       .  S
Zr1392     O1396   2.404       .  S
Zr1392     O1399   2.395       .  S
Zr1392     O1394   2.434       .  S
Zr1392     O1416   2.436       .  S
Zr1393     O1396   2.397       .  S
Zr1393     O1419   2.435       .  S
Zr1393     O1420   2.437       .  S
O1394      H1431   0.990       .  S
O1395      H1426   0.990       .  S
O1395      H1440   0.990       .  S
O1397      H1423   0.966       .  S
O1399     Zr1408   2.382       .  S
O1399      H1424   0.966       .  S
C1401      C1466   1.500       .  S
C1402      C1448   1.500       .  S
O1403      H1439   0.990       .  S
O1404      C1406   1.294       .  A
O1405      C1406   1.278       .  A
O1407     Zr1408   2.439       .  S
Zr1408     O1413   2.428       .  S
Zr1408     O1412   2.439       .  S
O1409      C1414   1.282       .  A
O1410      H1427   0.990       .  S
O1410      H1442   0.990       .  S
O1411      H1428   0.990       .  S
O1412      H1432   0.990       .  S
O1412      H1441   0.990       .  S
O1413      C1414   1.281       .  A
C1414      C1639   1.481       .  S
O1415      H1434   0.990       .  S
O1416      H1430   0.990       .  S
O1416      H1437   0.990       .  S
O1417      C1421   1.279       .  A
O1418      C1421   1.294       .  A
O1419      H1429   0.990       .  S
C1421      C1457   1.502       .  S
C1444      C1445   1.419   1_455  A
C1444      C1688   1.497       .  S
C1445      C1446   1.400       .  A
C1445      H1450   1.083       .  S
C1446      C1447   1.406   1_655  A
C1447      H1451   1.079       .  S
C1448      C1449   1.399       .  A
C1449      H1452   1.083       .  S
C1453      C1454   1.417       .  A
C1453      C1458   1.417       .  A
C1453      C1702   1.489       .  S
C1454      C1455   1.402       .  A
C1454      H1459   1.083       .  S
C1455      C1456   1.408       .  A
C1456      C1457   1.408       .  A
C1456      H1460   1.079       .  S
C1457      C1458   1.402       .  A
C1458      H1461   1.083       .  S
C1462      C1463   1.419       .  A
C1462      C1685   1.497   1_655  S
C1463      C1464   1.400       .  A
C1463      H1468   1.083       .  S
C1464      C1465   1.407   1_655  A
C1465      H1469   1.080       .  S
C1466      C1467   1.399       .  A
C1467      H1470   1.083       .  S
Zr1471     O1473   2.396       .  S
Zr1471     O1477   2.383       .  S
Zr1471     O1480   2.368       .  S
Zr1471     O1482   2.382       .  S
Zr1471     O1472   2.433       .  S
O1472      H1528   0.989       .  S
O1472      H1536   0.990       .  S
O1473      C1493   1.280       .  A
O1474      C1495   1.277       .  A
O1475     Zr1485   2.489       .  S
O1475      C1494   1.293       .  A
O1476     Zr1484   2.486       .  S
O1476      C1495   1.292       .  A
O1477      C1494   1.278       .  A
O1478     Zr1486   2.430       .  S
O1478      C1493   1.280       .  A
O1479     Zr1484   2.402       .  S
O1480     Zr1485   2.397       .  S
O1480     Zr1486   2.379       .  S
O1480      H1515   0.966       .  S
O1481     Zr1484   2.409       .  S
O1481      H1518   0.966       .  S
O1482     Zr1485   2.405       .  S
O1482     Zr1501   2.399       .  S
Zr1483     O1502   2.401       .  S
Zr1483     O1510   2.383       .  S
Zr1483     O1489   2.381       .  S
Zr1483     O1492   2.368       .  S
Zr1483     O1508   2.437       .  S
Zr1484     O1497   2.490       .  S
Zr1484     O1490   2.405       .  S
Zr1484     O1491   2.395       .  S
Zr1484     O1503   2.436       .  S
Zr1484     O1496   2.434       .  S
Zr1485     O1511   2.490       .  S
Zr1485     O1489   2.404       .  S
Zr1485     O1492   2.393       .  S
Zr1485     O1487   2.434       .  S
Zr1485     O1509   2.435       .  S
Zr1486     O1489   2.399       .  S
Zr1486     O1512   2.435       .  S
Zr1486     O1513   2.438       .  S
O1487      H1524   0.990       .  S
O1488      H1519   0.990       .  S
O1488      H1533   0.990       .  S
O1490      H1516   0.966       .  S
O1492     Zr1501   2.381       .  S
O1492      H1517   0.966       .  S
C1494      C1632   1.501       .  S
C1495      C1614   1.501       .  S
O1496      H1532   0.990       .  S
O1497      C1499   1.294       .  A
O1498      C1499   1.278       .  A
C1499      C1539   1.501       .  S
O1500     Zr1501   2.439       .  S
O1500      H1529   0.990       .  S
Zr1501     O1506   2.430       .  S
Zr1501     O1505   2.438       .  S
O1502      C1507   1.282       .  A
O1503      H1520   0.990       .  S
O1503      H1535   0.990       .  S
O1504      H1521   0.990       .  S
O1505      H1525   0.990       .  S
O1505      H1534   0.990       .  S
O1506      C1507   1.281       .  A
C1507      C1648   1.481       .  S
O1508      H1527   0.990       .  S
O1508      H1531   0.990       .  S
O1509      H1523   0.990       .  S
O1509      H1530   0.990       .  S
O1510      C1514   1.278       .  A
O1511      C1514   1.294       .  A
O1512      H1522   0.990       .  S
O1513      H1526   0.990       .  S
C1514      C1623   1.501       .  S
C1537      C1538   1.419       .  A
C1537      C1542   1.418       .  A
C1537      C1671   1.495       .  S
C1538      C1539   1.401       .  A
C1538      H1543   1.083       .  S
C1539      C1540   1.407       .  A
C1540      C1541   1.407       .  A
C1540      H1544   1.080       .  S
C1541      C1542   1.400       .  A
C1541      C1569   1.500       .  S
C1542      H1545   1.083       .  S
Zr1546     O1548   2.406       .  S
Zr1546     O1549   2.387       .  S
Zr1546     O1554   2.366       .  S
Zr1546     O1556   2.386       .  S
Zr1546     O1547   2.433       .  S
O1547      H1603   0.989       .  S
O1547      H1611   0.990       .  S
O1548      C1568   1.282       .  A
O1549      C1570   1.277       .  A
O1550     Zr1560   2.488       .  S
O1550      C1569   1.293       .  A
O1551     Zr1559   2.486       .  S
O1551      C1570   1.292       .  A
O1552      C1569   1.277       .  A
O1553     Zr1561   2.425       .  S
O1553      C1568   1.279       .  A
O1554     Zr1559   2.403       .  S
O1554     Zr1561   2.384       .  S
O1555     Zr1560   2.400       .  S
O1555      H1590   0.966       .  S
O1556     Zr1559   2.410       .  S
O1556     Zr1576   2.394       .  S
O1556      H1593   0.966       .  S
O1557     Zr1560   2.405       .  S
Zr1558     O1577   2.408       .  S
Zr1558     O1573   2.382       .  S
Zr1558     O1565   2.384       .  S
Zr1558     O1566   2.364       .  S
Zr1558     O1583   2.438       .  S
Zr1559     O1572   2.491       .  S
Zr1559     O1565   2.405       .  S
Zr1559     O1566   2.395       .  S
Zr1559     O1578   2.435       .  S
Zr1559     O1571   2.435       .  S
Zr1560     O1586   2.490       .  S
Zr1560     O1564   2.403       .  S
Zr1560     O1567   2.396       .  S
Zr1560     O1562   2.434       .  S
Zr1560     O1584   2.436       .  S
Zr1561     O1565   2.397       .  S
Zr1561     O1588   2.437       .  S
Zr1561     O1563   2.436       .  S
O1562      H1599   0.990       .  S
O1563      H1594   0.990       .  S
O1563      H1608   0.990       .  S
O1565      H1591   0.966       .  S
O1566     Zr1576   2.381       .  S
O1567      H1592   0.966       .  S
C1568      C1650   1.482       .  S
C1570      C1625   1.500       .  S
O1571      H1607   0.990       .  S
O1572      C1574   1.294       .  A
O1573      C1574   1.277       .  A
C1574      C1634   1.501       .  S
O1575     Zr1576   2.439       .  S
O1575      H1604   0.990       .  S
Zr1576     O1581   2.426       .  S
Zr1576     O1579   2.436       .  S
O1577      C1582   1.284       .  A
O1578      H1595   0.990       .  S
O1578      H1610   0.990       .  S
O1579      H1596   0.990       .  S
O1580      H1600   0.990       .  S
O1580      H1609   0.990       .  S
O1581      C1582   1.280       .  A
O1583      H1602   0.990       .  S
O1583      H1606   0.990       .  S
O1584      H1598   0.990       .  S
O1584      H1605   0.990       .  S
O1585      C1589   1.278       .  A
O1586      C1589   1.294       .  A
O1587      H1597   0.990       .  S
O1588      H1601   0.990       .  S
C1589      C1616   1.501       .  S
C1612      C1613   1.418       .  A
C1612      C1657   1.494   1_655  S
C1613      C1614   1.401       .  A
C1613      H1618   1.083       .  S
C1615      C1616   1.407       .  A
C1615      H1619   1.079       .  S
C1616      C1617   1.400       .  A
C1617      H1620   1.083       .  S
C1621      C1622   1.419       .  A
C1621      C1626   1.418       .  A
C1621      C1674   1.496       .  S
C1622      C1623   1.401       .  A
C1622      H1627   1.083       .  S
C1623      C1624   1.407       .  A
C1624      C1625   1.407       .  A
C1624      H1628   1.079       .  S
C1625      C1626   1.400       .  A
C1626      H1629   1.083       .  S
C1630      C1635   1.418       .  A
C1630      C1660   1.495       .  S
C1631      C1632   1.401       .  A
C1631      H1636   1.083       .  S
C1633      C1634   1.407       .  A
C1633      H1637   1.081       .  S
C1634      C1635   1.400       .  A
C1635      H1638   1.083       .  S
C1639      C1644   1.403       .  A
C1640      H1645   1.083       .  S
C1641      C1642   1.404       .  A
C1642      C1643   1.426   1_565  A
C1642      H1646   1.076   1_565  S
C1643      C1644   1.425   1_545  A
C1643      C1652   1.519       .  S
C1644      H1647   1.075   1_565  S
C1648      C1649   1.390       .  A
C1648      C1653   1.403       .  A
C1649      C1650   1.389       .  A
C1649      H1654   1.083       .  S
C1650      C1651   1.403       .  A
C1651      C1652   1.426       .  A
C1651      H1655   1.075       .  S
C1652      C1653   1.425       .  A
C1653      H1656   1.076       .  S
C1657      C1658   1.415   1_455  A
C1658      C1659   1.411       .  A
C1658      C1663   1.452       .  S
C1659      C1666   1.452       .  S
C1660      C1661   1.416       .  A
C1661      C1662   1.411       .  A
C1661      C1664   1.452       .  S
C1662      C1665   1.452       .  S
C1663      N1670   1.157       .  T
C1664      N1669   1.157       .  T
C1665      N1667   1.157       .  T
C1666      N1668   1.157       .  T
C1671      C1672   1.416       .  A
C1671      C1676   1.416       .  A
C1672      C1673   1.410       .  A
C1672      C1677   1.452       .  S
C1673      C1674   1.416       .  A
C1673      C1680   1.452       .  S
C1674      C1675   1.416       .  A
C1675      C1676   1.411       .  A
C1675      C1678   1.452       .  S
C1676      C1679   1.452       .  S
C1677      N1684   1.157       .  T
C1678      N1683   1.157       .  T
C1679      N1681   1.157       .  T
C1680      N1682   1.157       .  T
C1685      C1686   1.417   1_455  A
C1686      C1687   1.411       .  A
C1686      C1691   1.452       .  S
C1687      C1688   1.417   1_655  A
C1687      C1694   1.452       .  S
C1689      C1690   1.410       .  A
C1689      C1692   1.453       .  S
C1690      C1693   1.453       .  S
C1691      N1698   1.157       .  T
C1692      N1697   1.157       .  T
C1693      N1695   1.157       .  T
C1694      N1696   1.157       .  T
C1699      C1700   1.413       .  A
C1699      C1704   1.413       .  A
C1700      C1701   1.411       .  A
C1700      C1705   1.451       .  S
C1701      C1702   1.413       .  A
C1701      C1708   1.451       .  S
C1702      C1703   1.413       .  A
C1703      C1704   1.412       .  A
C1703      C1706   1.451       .  S
C1704      C1707   1.451       .  S
C1705      N1712   1.157       .  T
C1706      N1711   1.157       .  T
C1707      N1709   1.157       .  T
C1708      N1710   1.157       .  T
