geometry optimzed in LAMMPS
_audit_creation_date              2020-12-01 
_audit_creation_method            'lammps2cif' 
_symmetry_space_group_name_H-M    'P1' 
_symmetry_Int_Tables_number       1 
_symmetry_cell_setting            triclinic 
loop_ 
_symmetry_equiv_pos_as_xyz 
  x,y,z 
_cell_length_a                    27.73090213 
_cell_length_b                    27.721977531800608 
_cell_length_c                    40.62262739021649 
_cell_angle_alpha                 90.01444461125331 
_cell_angle_beta                  90.00669991452602 
_cell_angle_gamma                 120.00341221675139 
loop_ 
_atom_site_label 
_atom_site_type_symbol 
_atom_site_fract_x 
_atom_site_fract_y 
_atom_site_fract_z 
_atom_site_charge 
C1          C  0.04940075  0.50035426  0.49809158     0.78400
N2          N  0.04927435  0.04929490  0.99815927    -0.79900
C3          C  0.00034978  0.04942323  0.99824102     0.80800
N4          N  0.45142104  0.00035245  0.99825269    -0.79900
C5          C  0.45128547  0.45128483  0.49818940     0.80900
N6          N  0.50033600  0.45140900  0.49810996    -0.81600
C7          C  0.16740597  0.38277797  0.33140042     0.78400
N8          N  0.21632845  0.38264520  0.33133560    -0.79900
C9          C  0.21645877  0.33370979  0.33143450     0.80800
N10         N  0.16739580  0.28476871  0.33160927    -0.79900
C11         C  0.11834372  0.28464307  0.33168643     0.80900
N12         N  0.11847181  0.33370822  0.33157642    -0.81600
C13         C  0.38310096  0.16740973  0.16492823     0.78400
N14         N  0.38296670  0.21634499  0.16483459    -0.79900
C15         C  0.33404925  0.21647968  0.16474688     0.80800
N16         N  0.28511735  0.16741027  0.16475710    -0.79900
C17         C  0.28498683  0.11834188  0.16484729     0.80900
N18         N  0.33403640  0.11846281  0.16493080    -0.81600
C19         C  0.34409259  0.30540287  0.48042002     0.78400
N20         N  0.39337164  0.35411822  0.48114411    -0.79900
C21         C  0.39837300  0.39837757  0.49817747     0.80800
N22         N  0.35411674  0.39341187  0.01517300    -0.79900
C23         C  0.30536838  0.34415252  0.01582253     0.80900
N24         N  0.30001303  0.30007169  0.49810320    -0.81600
C25         C  0.36232424  0.37242813  0.31369738     0.78400
N26         N  0.36767617  0.33370744  0.33140921    -0.79900
C27         C  0.32360589  0.29497493  0.34911261     0.80800
N28         N  0.27435036  0.29443814  0.34841890    -0.79900
C29         C  0.26935260  0.33369394  0.33140041     0.80900
N30         N  0.31360096  0.37296724  0.31438095    -0.81600
C31         C  0.29530232  0.32363670  0.14702320     0.78400
N32         N  0.33403675  0.36772659  0.16473501    -0.79900
C33         C  0.37277938  0.36239053  0.18242393     0.80800
N34         N  0.37332519  0.31366298  0.18172605    -0.79900
C35         C  0.33405553  0.26939325  0.16470475     0.80900
N36         N  0.29477402  0.27436461  0.14769681    -0.81600
C37         C  0.19526235  0.03906473  0.48034275     0.78400
N38         N  0.20060603  0.50034726  0.49805790    -0.79900
C39         C  0.15654860  0.46161989  0.01576479     0.80800
N40         N  0.10729005  0.46108030  0.01507619    -0.79900
C41         C  0.10229295  0.50033680  0.49805161     0.80900
N42         N  0.14653964  0.03960858  0.48102473    -0.81600
C43         C  0.99027170  0.12873202  0.18273042     0.78400
N44         N  0.44100180  0.12817358  0.18202067    -0.79900
C45         C  0.43600997  0.16742844  0.16498596     0.80800
N46         N  0.48026664  0.20670107  0.14797454    -0.79900
C47         C  0.02899371  0.20618071  0.14731035     0.80900
N48         N  0.03433971  0.16746169  0.16502631    -0.81600
C49         C  0.13906814  0.01121109  0.18247455     0.78400
N50         N  0.13372315  0.46713987  0.16475327    -0.79900
C51         C  0.17779084  0.47246178  0.14706979     0.80800
N52         N  0.22707528  0.02117703  0.14779140    -0.79900
C53         C  0.23207178  0.06543589  0.16483057     0.80900
N54         N  0.18781566  0.06047066  0.18182899    -0.81600
O55         O  0.10249287  0.22988230  0.10935809    -0.83700
C56         C  0.16185317  0.42284282  0.03784680     0.95700
O57         O  0.11942212  0.37621214  0.04289671    -0.72800
O58         O  0.06296301  0.26902218  0.05390348    -0.76400
Al59       Al  0.10264884  0.33390629  0.08154787     1.49000
C60         C  0.07792284  0.23945925  0.03805439     0.90900
O61         O  0.23181449  0.29444167  0.05375998    -0.82600
O62         O  0.27135899  0.37334142  0.10912618    -0.76200
Al63       Al  0.16715068  0.26935882  0.08155257     1.90100
O64         O  0.25706929  0.38137822  0.04280391    -0.75200
O65         O  0.21492129  0.42412536  0.12000501    -0.75100
O66         O  0.20641251  0.43791950  0.05367329    -0.80700
O67         O  0.12793515  0.39878426  0.10920248    -0.78900
O68         O  0.16716102  0.33389988  0.08150385    -1.15100
O69         O  0.07725274  0.29160677  0.12020546    -0.74300
C70         C  0.07305851  0.24496683  0.12522770     0.96500
C71         C  0.26127055  0.33891910  0.03785562     0.92900
Al72       Al  0.23168364  0.39843464  0.08141096     1.55600
O73         O  0.12457247  0.24367221  0.04300554    -0.78900
C74         C  0.17249711  0.42833416  0.12501897     0.97000
C75         C  0.25639320  0.32886479  0.12502095     0.91900
O76         O  0.20972342  0.28640759  0.12010634    -0.84200
C77         C  0.46155044  0.15655626  0.48063860     0.78400
N78         N  0.50028355  0.20063738  0.49835098    -0.79900
C79         C  0.03902797  0.19530526  0.01603944     0.80800
N80         N  0.03959369  0.14658208  0.01532518    -0.79900
C81         C  0.50032561  0.10232114  0.49829165     0.80900
N82         N  0.46103832  0.10729642  0.48129227    -0.81600
C83         C  0.12866786  0.98993839  0.31366698     0.78400
N84         N  0.16740146  0.03401851  0.33138000    -0.79900
C85         C  0.20614282  0.02868931  0.34907065     0.80800
N86         N  0.20668873  0.47996269  0.34837667    -0.79900
C87         C  0.16741743  0.43569280  0.33135174     0.80900
N88         N  0.12813341  0.44066264  0.31433819    -0.81600
C89         C  0.47245795  0.17748232  0.34944261     0.78400
N90         N  0.02120025  0.22675918  0.34877756    -0.79900
C91         C  0.06544858  0.23171685  0.33176789     0.80800
N92         N  0.06044386  0.18745170  0.31474384    -0.79900
C93         C  0.01117684  0.13872943  0.31403898     0.80900
N94         N  0.46710674  0.13340603  0.33172418    -0.81600
O95         O  0.26896144  0.06290562  0.44251573    -0.83700
C96         C  0.32883907  0.25613670  0.37117697     0.95700
O97         O  0.28638576  0.20948190  0.37612505    -0.72800
O98         O  0.22985193  0.10227910  0.38697741    -0.76400
Al99       Al  0.26932473  0.16703868  0.41472631     1.49000
C100        C  0.24491877  0.07278013  0.37115672     0.90900
O101        O  0.39870285  0.12769272  0.38724987    -0.82600
O102        O  0.43782719  0.20637236  0.44271293    -0.76200
Al103      Al  0.33382939  0.10249593  0.41487698     1.90100
O104        O  0.42405943  0.21467734  0.37636487    -0.75200
O105        O  0.38131288  0.25708482  0.45346069    -0.75100
O106        O  0.37329434  0.27117050  0.38710729    -0.80700
O107        O  0.29440877  0.23181350  0.44245732    -0.78900
O108        O  0.33383940  0.16703314  0.41483671    -1.15100
O109        O  0.24361965  0.12457040  0.45330995    -0.74300
C110        C  0.23940226  0.07791781  0.45831658     0.96500
C111        C  0.42828406  0.17223085  0.37142207     0.92900
Al112      Al  0.39836389  0.23156981  0.41490664     1.55600
O113        O  0.29153320  0.07696661  0.37621546    -0.78900
C114        C  0.33886605  0.26129250  0.45837946     0.97000
C115        C  0.42275631  0.16184222  0.45856960     0.91900
O116        O  0.37612218  0.11939723  0.45354381    -0.84200
O117        O  0.06544120  0.46132346  0.22032411    -0.83700
C118        C  0.50589254  0.09468059  0.29193035     0.95700
O119        O  0.04832696  0.09049684  0.28689782    -0.72800
O120        O  0.10480470  0.03981760  0.27586805    -0.76400
Al121      Al  0.06522581  0.06511197  0.24822994     1.49000
C122        C  0.08980840  0.99523813  0.29165651     0.90000
O123        O  0.43593203  0.39635306  0.27577334    -0.82600
O124        O  0.39659578  0.43591053  0.22041654    -0.76200
Al125      Al  0.00069445  0.43604059  0.24805694     1.90100
O126        O  0.41066314  0.45800715  0.28677073    -0.75200
O127        O  0.45308213  0.04317359  0.20968874    -0.75100
O128        O  0.46138058  0.06525388  0.27604684    -0.80700
O129        O  0.04004053  0.10480769  0.22059641    -0.78900
O130        O  0.00070449  0.00057966  0.24817086    -1.15100
O131        O  0.09075852  0.04834146  0.20957271    -0.74300
C132        C  0.09495826  0.50590381  0.20452309     0.96500
C133        C  0.40644599  0.41133349  0.29168131     0.92900
Al134      Al  0.43618857  0.00058626  0.24822560     1.55600
O135        O  0.04315806  0.45280233  0.28664872    -0.78900
C136        C  0.99552575  0.08983947  0.20474384     0.97000
C137        C  0.41162006  0.40647116  0.20449157     0.91900
O138        O  0.45825785  0.41066134  0.20944664    -0.84200
C139        C  0.04939981  0.50035344  0.99809152     0.78400
N140        N  0.04927500  0.04929519  0.49815925    -0.79900
C141        C  0.00034814  0.04942254  0.49824091     0.80800
N142        N  0.45142111  0.00035266  0.49825273    -0.79900
C143        C  0.45128544  0.45128530  0.99818938     0.80900
N144        N  0.50033627  0.45140911  0.99810992    -0.81600
C145        C  0.16740735  0.38277854  0.83140054     0.78400
N146        N  0.21632778  0.38264527  0.83133565    -0.79900
C147        C  0.21645997  0.33370984  0.83143452     0.80800
N148        N  0.16739517  0.28476864  0.83160922    -0.79900
C149        C  0.11834479  0.28464319  0.83168629     0.80900
N150        N  0.11847128  0.33370800  0.83157638    -0.81600
C151        C  0.38310052  0.16740913  0.66492822     0.78400
N152        N  0.38296689  0.21634527  0.66483454    -0.79900
C153        C  0.33404949  0.21647954  0.66474684     0.80800
N154        N  0.28511747  0.16741037  0.66475704    -0.79900
C155        C  0.28498674  0.11834178  0.66484721     0.80900
N156        N  0.33403677  0.11846311  0.66493072    -0.81600
C157        C  0.34409147  0.30540193  0.98041995     0.78400
N158        N  0.39337220  0.35411885  0.98114419    -0.79900
C159        C  0.39837222  0.39837666  0.99817731     0.80800
N160        N  0.35411639  0.39341151  0.51517314    -0.79900
C161        C  0.30536913  0.34415303  0.51582245     0.80900
N162        N  0.30001342  0.30007194  0.99810310    -0.81600
C163        C  0.36232290  0.37242937  0.81369715     0.78400
N164        N  0.36767669  0.33370679  0.83140944    -0.79900
C165        C  0.32360425  0.29497511  0.84911248     0.80800
N166        N  0.27435110  0.29443772  0.84841907    -0.79900
C167        C  0.26935144  0.33369456  0.83140014     0.80900
N168        N  0.31360198  0.37296702  0.81438108    -0.81600
C169        C  0.29530252  0.32363684  0.64702328     0.78400
N170        N  0.33403633  0.36772654  0.66473483    -0.79900
C171        C  0.37277980  0.36238989  0.68242401     0.80800
N172        N  0.37332518  0.31366332  0.68172608    -0.79900
C173        C  0.33405537  0.26939303  0.66470469     0.80900
N174        N  0.29477411  0.27436451  0.64769672    -0.81600
C175        C  0.19526266  0.03906468  0.98034286     0.78400
N176        N  0.20060537  0.50034702  0.99805804    -0.79900
C177        C  0.15654722  0.46161923  0.51576507     0.80800
N178        N  0.10729075  0.46108075  0.51507596    -0.79900
C179        C  0.10229436  0.50033766  0.99805128     0.80900
N180        N  0.14653969  0.03960879  0.98102476    -0.81600
C181        C  0.99027188  0.12873210  0.68273059     0.78400
N182        N  0.44100128  0.12817367  0.68202071    -0.79900
C183        C  0.43601085  0.16742858  0.66498598     0.80800
N184        N  0.48026601  0.20670114  0.64797456    -0.79900
C185        C  0.02899399  0.20618020  0.64731045     0.80900
N186        N  0.03433970  0.16746215  0.66502624    -0.81600
C187        C  0.13906764  0.01121004  0.68247435     0.78400
N188        N  0.13372305  0.46713960  0.66475320    -0.79900
C189        C  0.17779118  0.47246212  0.64706982     0.80800
N190        N  0.22707541  0.02117713  0.64779141    -0.79900
C191        C  0.23207172  0.06543568  0.66483049     0.80900
N192        N  0.18781597  0.06047100  0.68182897    -0.81600
O193        O  0.10249307  0.22988233  0.60935809    -0.83700
C194        C  0.16185392  0.42284359  0.53784679     0.95700
O195        O  0.11942195  0.37621195  0.54289663    -0.72800
O196        O  0.06296306  0.26902208  0.55390344    -0.76400
Al197      Al  0.10264890  0.33390638  0.58154786     1.49000
C198        C  0.07792192  0.23945956  0.53805448     0.90900
O199        O  0.23181453  0.29444170  0.55375993    -0.82600
O200        O  0.27135901  0.37334153  0.60912608    -0.76200
Al201      Al  0.16715064  0.26935891  0.58155257     1.90100
O202        O  0.25706938  0.38137817  0.54280380    -0.75200
O203        O  0.21492134  0.42412534  0.62000498    -0.75100
O204        O  0.20641232  0.43791938  0.55367320    -0.80700
O205        O  0.12793531  0.39878432  0.60920240    -0.78900
O206        O  0.16716103  0.33389991  0.58150384    -1.15100
O207        O  0.07725283  0.29160663  0.62020557    -0.74300
C208        C  0.07305834  0.24496767  0.62522774     0.96500
C209        C  0.26127033  0.33891934  0.53785562     0.92900
Al210      Al  0.23168360  0.39843462  0.58141092     1.55600
O211        O  0.12457275  0.24367239  0.54300558    -0.78900
C212        C  0.17249702  0.42833416  0.62501884     0.97000
C213        C  0.25639287  0.32886442  0.62502086     0.91900
O214        O  0.20972344  0.28640774  0.62010629    -0.84200
C215        C  0.46155118  0.15655754  0.98063876     0.78400
N216        N  0.50028316  0.20063714  0.99835069    -0.79900
C217        C  0.03902889  0.19530455  0.51603975     0.80800
N218        N  0.03959314  0.14658221  0.51532499    -0.79900
C219        C  0.50032540  0.10232098  0.99829149     0.80900
N220        N  0.46103828  0.10729607  0.98129223    -0.81600
C221        C  0.12866846  0.98993992  0.81366711     0.78400
N222        N  0.16740124  0.03401802  0.83137993    -0.79900
C223        C  0.20614317  0.02869002  0.84907079     0.80800
N224        N  0.20668895  0.47996271  0.84837681    -0.79900
C225        C  0.16741644  0.43569240  0.83135164     0.80900
N226        N  0.12813365  0.44066272  0.81433836    -0.81600
C227        C  0.47245784  0.17748215  0.84944255     0.78400
N228        N  0.02120041  0.22675924  0.84877744    -0.79900
C229        C  0.06544820  0.23171698  0.83176796     0.80800
N230        N  0.06044380  0.18745155  0.81474384    -0.79900
C231        C  0.01117746  0.13872971  0.81403893     0.80900
N232        N  0.46710661  0.13340598  0.83172421    -0.81600
O233        O  0.26896168  0.06290564  0.94251561    -0.83700
C234        C  0.32884019  0.25613713  0.87117730     0.95700
O235        O  0.28638544  0.20948164  0.87612505    -0.72800
O236        O  0.22985206  0.10227914  0.88697752    -0.76400
Al237      Al  0.26932474  0.16703870  0.91472634     1.49000
C238        C  0.24491888  0.07277986  0.87115670     0.90900
O239        O  0.39870281  0.12769275  0.88724992    -0.82600
O240        O  0.43782743  0.20637269  0.94271287    -0.76200
Al241      Al  0.33382949  0.10249603  0.91487698     1.90100
O242        O  0.42405940  0.21467733  0.87636492    -0.75200
O243        O  0.38131281  0.25708478  0.95346063    -0.75100
O244        O  0.37329407  0.27117024  0.88710712    -0.80700
O245        O  0.29440860  0.23181332  0.94245727    -0.78900
O246        O  0.33383939  0.16703318  0.91483674    -1.15100
O247        O  0.24361987  0.12457037  0.95331000    -0.74300
C248        C  0.23940211  0.07791798  0.95831662     0.96500
C249        C  0.42828408  0.17223100  0.87142208     0.92900
Al250      Al  0.39836390  0.23156979  0.91490666     1.55600
O251        O  0.29153342  0.07696678  0.87621545    -0.78900
C252        C  0.33886638  0.26129268  0.95837960     0.97000
C253        C  0.42275567  0.16184115  0.95856964     0.91900
O254        O  0.37612264  0.11939756  0.95354383    -0.84200
O255        O  0.06544116  0.46132356  0.72032398    -0.83700
C256        C  0.50589236  0.09468054  0.79193030     0.95700
O257        O  0.04832710  0.09049666  0.78689782    -0.72800
O258        O  0.10480482  0.03981787  0.77586800    -0.76400
Al259      Al  0.06522582  0.06511194  0.74823000     1.49000
C260        C  0.08980766  0.99523706  0.79165670     0.90000
O261        O  0.43593180  0.39635323  0.77577344    -0.82600
O262        O  0.39659582  0.43591030  0.72041654    -0.76200
Al263      Al  0.00069439  0.43604050  0.74805695     1.90100
O264        O  0.41066316  0.45800764  0.78677066    -0.75200
O265        O  0.45308237  0.04317375  0.70968876    -0.75100
O266        O  0.46138072  0.06525404  0.77604692    -0.80700
O267        O  0.04004054  0.10480768  0.72059661    -0.78900
O268        O  0.00070444  0.00057962  0.74817093    -1.15100
O269        O  0.09075880  0.04834137  0.70957277    -0.74300
C270        C  0.09495797  0.50590297  0.70452316     0.96500
C271        C  0.40644672  0.41133207  0.79168130     0.92900
Al272      Al  0.43618852  0.00058630  0.74822567     1.55600
O273        O  0.04315802  0.45280212  0.78664862    -0.78900
C274        C  0.99552560  0.08983941  0.70474383     0.97000
C275        C  0.41161925  0.40647146  0.70449176     0.91900
O276        O  0.45825808  0.41066139  0.70944667    -0.84200
C277        C  0.04940009  0.00035360  0.49809160     0.78400
N278        N  0.04927492  0.54929521  0.99815928    -0.79900
C279        C  0.00034882  0.54942270  0.99824097     0.80800
N280        N  0.45142096  0.50035251  0.99825268    -0.79900
C281        C  0.45128513  0.95128506  0.49818943     0.80900
N282        N  0.50033627  0.95140911  0.49810994    -0.81600
C283        C  0.16740677  0.88277864  0.33140048     0.78400
N284        N  0.21632818  0.88264501  0.33133562    -0.79900
C285        C  0.21645918  0.83370993  0.33143451     0.80800
N286        N  0.16739562  0.78476857  0.33160924    -0.79900
C287        C  0.11834427  0.78464339  0.33168638     0.80900
N288        N  0.11847150  0.83370785  0.33157642    -0.81600
C289        C  0.38310075  0.66740906  0.16492826     0.78400
N290        N  0.38296677  0.71634535  0.16483460    -0.79900
C291        C  0.33404903  0.71647928  0.16474689     0.80800
N292        N  0.28511750  0.66741051  0.16475709    -0.79900
C293        C  0.28498657  0.61834158  0.16484729     0.80900
N294        N  0.33403661  0.61846314  0.16493078    -0.81600
C295        C  0.34409197  0.80540214  0.48041992     0.78400
N296        N  0.39337188  0.85411872  0.48114421    -0.79900
C297        C  0.39837285  0.89837684  0.49817728     0.80800
N298        N  0.35411682  0.89341193  0.01517296    -0.79900
C299        C  0.30536831  0.84415252  0.01582253     0.80900
N300        N  0.30001313  0.80007185  0.49810319    -0.81600
C301        C  0.36232445  0.87242898  0.31369701     0.78400
N302        N  0.36767593  0.83370685  0.33140946    -0.79900
C303        C  0.32360638  0.79497557  0.34911235     0.80800
N304        N  0.27435023  0.79443781  0.34841899    -0.79900
C305        C  0.26935283  0.83369449  0.33140022     0.80900
N306        N  0.31360086  0.87296687  0.31438109    -0.81600
C307        C  0.29530237  0.82363683  0.14702326     0.78400
N308        N  0.33403664  0.86772653  0.16473496    -0.79900
C309        C  0.37277942  0.86239050  0.18242389     0.80800
N310        N  0.37332516  0.81366296  0.18172600    -0.79900
C311        C  0.33405565  0.76939341  0.16470480     0.80900
N312        N  0.29477394  0.77436452  0.14769679    -0.81600
C313        C  0.19526183  0.53906474  0.48034283     0.78400
N314        N  0.20060575  0.00034725  0.49805791    -0.79900
C315        C  0.15654801  0.96161938  0.01576498     0.80800
N316        N  0.10729035  0.96108067  0.01507600    -0.79900
C317        C  0.10229371  0.00033737  0.49805142     0.80900
N318        N  0.14654020  0.53960885  0.48102469    -0.81600
C319        C  0.99027225  0.62873215  0.18273048     0.78400
N320        N  0.44100195  0.62817348  0.18202070    -0.79900
C321        C  0.43600969  0.66742856  0.16498591     0.80800
N322        N  0.48026686  0.70670115  0.14797453    -0.79900
C323        C  0.02899396  0.70618025  0.14731041     0.80900
N324        N  0.03433954  0.66746189  0.16502620    -0.81600
C325        C  0.13906762  0.51121015  0.18247440     0.78400
N326        N  0.13372306  0.96713955  0.16475316    -0.79900
C327        C  0.17779090  0.97246204  0.14706988     0.80800
N328        N  0.22707532  0.52117712  0.14779141    -0.79900
C329        C  0.23207167  0.56543573  0.16483051     0.80900
N330        N  0.18781586  0.56047096  0.18182897    -0.81600
O331        O  0.10249296  0.72988233  0.10935804    -0.83700
C332        C  0.16185363  0.92284333  0.03784673     0.95700
O333        O  0.11942206  0.87621211  0.04289667    -0.72800
O334        O  0.06296306  0.76902223  0.05390352    -0.76400
Al335      Al  0.10264888  0.83390638  0.08154785     1.49000
C336        C  0.07792281  0.73945930  0.03805441     0.90900
O337        O  0.23181444  0.79444166  0.05375997    -0.82600
O338        O  0.27135899  0.87334152  0.10912618    -0.76200
Al339      Al  0.16715067  0.76935888  0.08155257     1.90100
O340        O  0.25706925  0.88137820  0.04280389    -0.75200
O341        O  0.21492126  0.92412538  0.12000501    -0.75100
O342        O  0.20641246  0.93791952  0.05367329    -0.80700
O343        O  0.12793515  0.89878427  0.10920244    -0.78900
O344        O  0.16716104  0.83389995  0.08150385    -1.15100
O345        O  0.07725274  0.79160666  0.12020551    -0.74300
C346        C  0.07305842  0.74496747  0.12522767     0.96500
C347        C  0.26127066  0.83891946  0.03785559     0.92900
Al348      Al  0.23168363  0.89843466  0.08141098     1.55600
O349        O  0.12457256  0.74367233  0.04300557    -0.78900
C350        C  0.17249722  0.92833424  0.12501889     0.97000
C351        C  0.25639293  0.82886447  0.12502095     0.91900
O352        O  0.20972343  0.78640769  0.12010634    -0.84200
C353        C  0.46155074  0.65655751  0.48063860     0.78400
N354        N  0.50028340  0.70063707  0.49835095    -0.79900
C355        C  0.03902802  0.69530517  0.01603945     0.80800
N356        N  0.03959346  0.64658197  0.01532510    -0.79900
C357        C  0.50032472  0.60232107  0.49829138     0.80900
N358        N  0.46103861  0.60729603  0.48129237    -0.81600
C359        C  0.12866847  0.48993968  0.31366711     0.78400
N360        N  0.16740125  0.53401809  0.33137988    -0.79900
C361        C  0.20614305  0.52869006  0.34907077     0.80800
N362        N  0.20668896  0.97996316  0.34837680    -0.79900
C363        C  0.16741694  0.93569199  0.33135156     0.80900
N364        N  0.12813356  0.94066312  0.31433830    -0.81600
C365        C  0.47245802  0.67748251  0.34944259     0.78400
N366        N  0.02120024  0.72675910  0.34877754    -0.79900
C367        C  0.06544859  0.73171681  0.33176786     0.80800
N368        N  0.06044392  0.68745167  0.31474384    -0.79900
C369        C  0.01117717  0.63872967  0.31403896     0.80900
N370        N  0.46710658  0.63340591  0.33172416    -0.81600
O371        O  0.26896141  0.56290569  0.44251573    -0.83700
C372        C  0.32883891  0.75613647  0.37117707     0.95700
O373        O  0.28638581  0.70948196  0.37612503    -0.72800
O374        O  0.22985193  0.60227921  0.38697751    -0.76400
Al375      Al  0.26932472  0.66703868  0.41472633     1.49000
C376        C  0.24491887  0.57277984  0.37115663     0.90900
O377        O  0.39870288  0.62769281  0.38724987    -0.82600
O378        O  0.43782727  0.70637267  0.44271287    -0.76200
Al379      Al  0.33382940  0.60249593  0.41487695     1.90100
O380        O  0.42405943  0.71467742  0.37636488    -0.75200
O381        O  0.38131270  0.75708469  0.45346065    -0.75100
O382        O  0.37329437  0.77117052  0.38710729    -0.80700
O383        O  0.29440857  0.73181341  0.44245729    -0.78900
O384        O  0.33383939  0.66703315  0.41483670    -1.15100
O385        O  0.24361957  0.62457041  0.45331000    -0.74300
C386        C  0.23940244  0.57791758  0.45831654     0.96500
C387        C  0.42828397  0.67223073  0.37142208     0.92900
Al388      Al  0.39836386  0.73156978  0.41490665     1.55600
O389        O  0.29153321  0.57696671  0.37621542    -0.78900
C390        C  0.33886630  0.76129267  0.45837959     0.97000
C391        C  0.42275563  0.66184111  0.45856976     0.91900
O392        O  0.37612240  0.61939751  0.45354382    -0.84200
O393        O  0.06544131  0.96132363  0.22032403    -0.83700
C394        C  0.50589240  0.59468060  0.29193033     0.95700
O395        O  0.04832702  0.59049688  0.28689782    -0.72800
O396        O  0.10480483  0.53981789  0.27586798    -0.76400
Al397      Al  0.06522580  0.56511203  0.24822993     1.49000
C398        C  0.08980782  0.49523726  0.29165660     0.90000
O399        O  0.43593205  0.89635316  0.27577332    -0.82600
O400        O  0.39659569  0.93591045  0.22041651    -0.76200
Al401      Al  0.00069445  0.93604054  0.24805692     1.90100
O402        O  0.41066324  0.95800742  0.28677066    -0.75200
O403        O  0.45308210  0.54317356  0.20968876    -0.75100
O404        O  0.46138062  0.56525400  0.27604690    -0.80700
O405        O  0.04004064  0.60480774  0.22059648    -0.78900
O406        O  0.00070452  0.50057967  0.24817085    -1.15100
O407        O  0.09075858  0.54834131  0.20957269    -0.74300
C408        C  0.09495793  0.00590280  0.20452316     0.96500
C409        C  0.40644589  0.91133269  0.29168142     0.92900
Al410      Al  0.43618858  0.50058631  0.24822562     1.55600
O411        O  0.04315782  0.95280205  0.28664870    -0.78900
C412        C  0.99552510  0.58983915  0.20474373     0.97000
C413        C  0.41162003  0.90647119  0.20449158     0.91900
O414        O  0.45825784  0.91066139  0.20944661    -0.84200
C415        C  0.04940087  0.00035451  0.99809146     0.78400
N416        N  0.04927474  0.54929507  0.49815924    -0.79900
C417        C  0.00034856  0.54942264  0.49824094     0.80800
N418        N  0.45142088  0.50035269  0.49825273    -0.79900
C419        C  0.45128541  0.95128546  0.99818937     0.80900
N420        N  0.50033608  0.95140878  0.99810993    -0.81600
C421        C  0.16740662  0.88277805  0.83140048     0.78400
N422        N  0.21632812  0.88264541  0.83133562    -0.79900
C423        C  0.21645921  0.83370938  0.83143450     0.80800
N424        N  0.16739572  0.78476886  0.83160924    -0.79900
C425        C  0.11834367  0.78464289  0.83168636     0.80900
N426        N  0.11847170  0.83370823  0.83157637    -0.81600
C427        C  0.38310107  0.66740946  0.66492819     0.78400
N428        N  0.38296677  0.71634521  0.66483453    -0.79900
C429        C  0.33404928  0.71647921  0.66474681     0.80800
N430        N  0.28511749  0.66741057  0.66475704    -0.79900
C431        C  0.28498699  0.61834158  0.66484721     0.80900
N432        N  0.33403643  0.61846292  0.66493074    -0.81600
C433        C  0.34409148  0.80540210  0.98042004     0.78400
N434        N  0.39337218  0.85411869  0.98114416    -0.79900
C435        C  0.39837228  0.89837676  0.99817737     0.80800
N436        N  0.35411640  0.89341162  0.51517321    -0.79900
C437        C  0.30536888  0.84415261  0.51582237     0.80900
N438        N  0.30001347  0.80007193  0.99810311    -0.81600
C439        C  0.36232342  0.87242820  0.81369758     0.78400
N440        N  0.36767661  0.83370745  0.83140915    -0.79900
C441        C  0.32360432  0.79497445  0.84911274     0.80800
N442        N  0.27435092  0.79443796  0.84841896    -0.79900
C443        C  0.26935171  0.83369409  0.83140026     0.80900
N444        N  0.31360158  0.87296730  0.81438097    -0.81600
C445        C  0.29530282  0.82363747  0.64702334     0.78400
N446        N  0.33403621  0.86772623  0.66473479    -0.79900
C447        C  0.37277989  0.86239047  0.68242414     0.80800
N448        N  0.37332495  0.81366287  0.68172603    -0.79900
C449        C  0.33405565  0.76939358  0.66470482     0.80900
N450        N  0.29477397  0.77436421  0.64769668    -0.81600
C451        C  0.19526306  0.53906491  0.98034266     0.78400
N452        N  0.20060570  0.00034731  0.99805795    -0.79900
C453        C  0.15654772  0.96161944  0.51576501     0.80800
N454        N  0.10729049  0.96108060  0.51507609    -0.79900
C455        C  0.10229349  0.00033674  0.99805159     0.80900
N456        N  0.14653918  0.53960837  0.98102488    -0.81600
C457        C  0.99027214  0.62873219  0.68273050     0.78400
N458        N  0.44100191  0.62817366  0.68202071    -0.79900
C459        C  0.43601002  0.66742852  0.66498604     0.80800
N460        N  0.48026667  0.70670120  0.64797454    -0.79900
C461        C  0.02899382  0.70618045  0.64731042     0.80900
N462        N  0.03433963  0.66746191  0.66502638    -0.81600
C463        C  0.13906817  0.51121099  0.68247449     0.78400
N464        N  0.13372324  0.96713992  0.66475328    -0.79900
C465        C  0.17779106  0.97246184  0.64706978     0.80800
N466        N  0.22707527  0.52117693  0.64779139    -0.79900
C467        C  0.23207188  0.56543601  0.66483057     0.80900
N468        N  0.18781573  0.56047067  0.68182897    -0.81600
O469        O  0.10249291  0.72988233  0.60935815    -0.83700
C470        C  0.16185359  0.92284338  0.53784681     0.95700
O471        O  0.11942202  0.87621202  0.54289670    -0.72800
O472        O  0.06296302  0.76902219  0.55390340    -0.76400
Al473      Al  0.10264889  0.83390635  0.58154785     1.49000
C474        C  0.07792232  0.73945942  0.53805443     0.90900
O475        O  0.23181454  0.79444172  0.55375994    -0.82600
O476        O  0.27135910  0.87334162  0.60912605    -0.76200
Al477      Al  0.16715064  0.76935889  0.58155259     1.90100
O478        O  0.25706941  0.88137819  0.54280380    -0.75200
O479        O  0.21492136  0.92412540  0.62000496    -0.75100
O480        O  0.20641241  0.93791946  0.55367323    -0.80700
O481        O  0.12793527  0.89878437  0.60920245    -0.78900
O482        O  0.16716101  0.83389990  0.58150384    -1.15100
O483        O  0.07725280  0.79160673  0.62020554    -0.74300
C484        C  0.07305848  0.74496725  0.62522774     0.96500
C485        C  0.26127026  0.83891918  0.53785563     0.92900
Al486      Al  0.23168363  0.89843463  0.58141090     1.55600
O487        O  0.12457256  0.74367229  0.54300560    -0.78900
C488        C  0.17249715  0.92833420  0.62501893     0.97000
C489        C  0.25639283  0.82886432  0.62502087     0.91900
O490        O  0.20972357  0.78640784  0.62010627    -0.84200
C491        C  0.46155073  0.65655627  0.98063869     0.78400
N492        N  0.50028327  0.70063760  0.99835075    -0.79900
C493        C  0.03902854  0.69530500  0.51603967     0.80800
N494        N  0.03959338  0.64658217  0.51532503    -0.79900
C495        C  0.50032553  0.60232091  0.99829148     0.80900
N496        N  0.46103835  0.60729654  0.98129222    -0.81600
C497        C  0.12866804  0.48993945  0.81366698     0.78400
N498        N  0.16740142  0.53401809  0.83138001    -0.79900
C499        C  0.20614279  0.52869004  0.84907066     0.80800
N500        N  0.20668883  0.97996273  0.84837672    -0.79900
C501        C  0.16741687  0.93569263  0.83135172     0.80900
N502        N  0.12813355  0.94066257  0.81433829    -0.81600
C503        C  0.47245815  0.67748250  0.84944255     0.78400
N504        N  0.02119993  0.72675899  0.84877757    -0.79900
C505        C  0.06544886  0.73171714  0.83176776     0.80800
N506        N  0.06044356  0.68745153  0.81474388    -0.79900
C507        C  0.01117758  0.63872973  0.81403885     0.80900
N508        N  0.46710647  0.63340582  0.83172425    -0.81600
O509        O  0.26896171  0.56290562  0.94251560    -0.83700
C510        C  0.32883996  0.75613713  0.87117714     0.95700
O511        O  0.28638544  0.70948162  0.87612510    -0.72800
O512        O  0.22985191  0.60227915  0.88697747    -0.76400
Al513      Al  0.26932470  0.66703868  0.91472634     1.49000
C514        C  0.24491907  0.57277971  0.87115669     0.90900
O515        O  0.39870281  0.62769278  0.88724987    -0.82600
O516        O  0.43782729  0.70637224  0.94271293    -0.76200
Al517      Al  0.33382948  0.60249604  0.91487699     1.90100
O518        O  0.42405936  0.71467734  0.87636491    -0.75200
O519        O  0.38131283  0.75708486  0.95346066    -0.75100
O520        O  0.37329412  0.77117021  0.88710718    -0.80700
O521        O  0.29440857  0.73181330  0.94245731    -0.78900
O522        O  0.33383938  0.66703319  0.91483676    -1.15100
O523        O  0.24361991  0.62457038  0.95330994    -0.74300
C524        C  0.23940197  0.57791796  0.95831666     0.96500
C525        C  0.42828393  0.67223067  0.87142210     0.92900
Al526      Al  0.39836392  0.73156979  0.91490665     1.55600
O527        O  0.29153321  0.57696671  0.87621548    -0.78900
C528        C  0.33886656  0.76129271  0.95837956     0.97000
C529        C  0.42275659  0.66184253  0.95856951     0.91900
O530        O  0.37612231  0.61939716  0.95354380    -0.84200
O531        O  0.06544106  0.96132341  0.72032404    -0.83700
C532        C  0.50589194  0.59468037  0.79193025     0.95700
O533        O  0.04832707  0.59049659  0.78689779    -0.72800
O534        O  0.10480474  0.53981781  0.77586802    -0.76400
Al535      Al  0.06522583  0.56511193  0.74822998     1.49000
C536        C  0.08980796  0.49523749  0.79165667     0.90000
O537        O  0.43593192  0.89635302  0.77577338    -0.82600
O538        O  0.39659586  0.93591039  0.72041662    -0.76200
Al539      Al  0.00069439  0.93604054  0.74805694     1.90100
O540        O  0.41066309  0.95800718  0.78677077    -0.75200
O541        O  0.45308220  0.54317362  0.70968877    -0.75100
O542        O  0.46138077  0.56525399  0.77604696    -0.80700
O543        O  0.04004058  0.60480769  0.72059660    -0.78900
O544        O  0.00070448  0.50057966  0.74817095    -1.15100
O545        O  0.09075873  0.54834151  0.70957278    -0.74300
C546        C  0.09495828  0.00590395  0.70452309     0.96500
C547        C  0.40644635  0.91133346  0.79168131     0.92900
Al548      Al  0.43618858  0.50058623  0.74822567     1.55600
O549        O  0.04315818  0.95280225  0.78664866    -0.78900
C550        C  0.99552518  0.58983905  0.70474381     0.97000
C551        C  0.41161929  0.90647128  0.70449167     0.91900
O552        O  0.45825806  0.91066135  0.70944671    -0.84200
C553        C  0.54940092  0.50035422  0.49809159     0.78400
N554        N  0.54927474  0.04929485  0.99815928    -0.79900
C555        C  0.50034906  0.04942314  0.99824099     0.80800
N556        N  0.95142071  0.00035245  0.99825269    -0.79900
C557        C  0.95128526  0.45128476  0.49818940     0.80900
N558        N  0.00033610  0.45140898  0.49810996    -0.81600
C559        C  0.66740652  0.38277807  0.33140044     0.78400
N560        N  0.71632822  0.38264528  0.33133560    -0.79900
C561        C  0.71645891  0.33370965  0.33143451     0.80800
N562        N  0.66739581  0.28476877  0.33160927    -0.79900
C563        C  0.61834389  0.28464308  0.33168643     0.80900
N564        N  0.61847164  0.33370813  0.33157642    -0.81600
C565        C  0.88310054  0.16740968  0.16492822     0.78400
N566        N  0.88296691  0.21634496  0.16483459    -0.79900
C567        C  0.83404884  0.21647976  0.16474686     0.80800
N568        N  0.78511753  0.16741012  0.16475710    -0.79900
C569        C  0.78498622  0.11834219  0.16484732     0.80900
N570        N  0.83403677  0.11846283  0.16493081    -0.81600
C571        C  0.84409255  0.30540287  0.48042002     0.78400
N572        N  0.89337161  0.35411821  0.48114411    -0.79900
C573        C  0.89837303  0.39837758  0.49817747     0.80800
N574        N  0.85411670  0.39341192  0.01517305    -0.79900
C575        C  0.80536831  0.34415231  0.01582247     0.80900
N576        N  0.80001301  0.30007170  0.49810320    -0.81600
C577        C  0.86232456  0.37242807  0.31369738     0.78400
N578        N  0.86767597  0.33370743  0.33140922    -0.79900
C579        C  0.82360627  0.29497498  0.34911260     0.80800
N580        N  0.77435020  0.29443810  0.34841889    -0.79900
C581        C  0.76935275  0.33369402  0.33140038     0.80900
N582        N  0.81360081  0.37296721  0.31438096    -0.81600
C583        C  0.79530245  0.32363665  0.14702329     0.78400
N584        N  0.83403649  0.36772668  0.16473489    -0.79900
C585        C  0.87277979  0.36239014  0.18242407     0.80800
N586        N  0.87332505  0.31366321  0.18172599    -0.79900
C587        C  0.83405578  0.26939311  0.16470484     0.80900
N588        N  0.79477387  0.27436467  0.14769678    -0.81600
C589        C  0.69526197  0.03906481  0.48034275     0.78400
N590        N  0.70060601  0.50034727  0.49805790    -0.79900
C591        C  0.65654854  0.46161988  0.01576479     0.80800
N592        N  0.60729009  0.46108025  0.01507620    -0.79900
C593        C  0.60229290  0.50033679  0.49805162     0.80900
N594        N  0.64653991  0.03960862  0.48102472    -0.81600
C595        C  0.49027171  0.12873200  0.18273043     0.78400
N596        N  0.94100178  0.12817360  0.18202068    -0.79900
C597        C  0.93601013  0.16742848  0.16498595     0.80800
N598        N  0.98026663  0.20670106  0.14797454    -0.79900
C599        C  0.52899376  0.20618069  0.14731036     0.80900
N600        N  0.53433968  0.16746170  0.16502631    -0.81600
C601        C  0.63906821  0.01121115  0.18247455     0.78400
N602        N  0.63372287  0.46713984  0.16475337    -0.79900
C603        C  0.67779137  0.47246184  0.14706965     0.80800
N604        N  0.72707518  0.02117707  0.14779152    -0.79900
C605        C  0.73207209  0.06543566  0.16483040     0.80900
N606        N  0.68781548  0.06047067  0.18182905    -0.81600
O607        O  0.60249286  0.22988231  0.10935808    -0.83700
C608        C  0.66185315  0.42284282  0.03784679     0.95700
O609        O  0.61942209  0.37621214  0.04289671    -0.72800
O610        O  0.56296311  0.26902207  0.05390345    -0.76400
Al611      Al  0.60264880  0.33390628  0.08154787     1.49000
C612        C  0.57792238  0.23945938  0.03805438     0.90900
O613        O  0.73181446  0.29444167  0.05376002    -0.82600
O614        O  0.77135897  0.37334142  0.10912619    -0.76200
Al615      Al  0.66715068  0.26935885  0.08155259     1.90100
O616        O  0.75706926  0.38137818  0.04280392    -0.75200
O617        O  0.71492136  0.42412535  0.12000499    -0.75100
O618        O  0.70641250  0.43791949  0.05367329    -0.80700
O619        O  0.62793522  0.39878429  0.10920249    -0.78900
O620        O  0.66716101  0.33389988  0.08150385    -1.15100
O621        O  0.57725272  0.29160676  0.12020546    -0.74300
C622        C  0.57305847  0.24496687  0.12522771     0.96500
C623        C  0.76127041  0.33891927  0.03785563     0.92900
Al624      Al  0.73168360  0.39843465  0.08141097     1.55600
O625        O  0.62457271  0.24367223  0.04300557    -0.78900
C626        C  0.67249675  0.42833408  0.12501898     0.97000
C627        C  0.75639317  0.32886483  0.12502094     0.91900
O628        O  0.70972340  0.28640759  0.12010635    -0.84200
C629        C  0.96155093  0.15655602  0.48063882     0.78400
N630        N  0.00028304  0.20063750  0.49835078    -0.79900
C631        C  0.53902865  0.19530503  0.01603962     0.80800
N632        N  0.53959342  0.14658221  0.01532506    -0.79900
C633        C  0.00032631  0.10232098  0.49829188     0.80900
N634        N  0.96103798  0.10729661  0.48129207    -0.81600
C635        C  0.62866782  0.98993839  0.31366698     0.78400
N636        N  0.66740143  0.03401851  0.33138000    -0.79900
C637        C  0.70614278  0.02868931  0.34907065     0.80800
N638        N  0.70668885  0.47996275  0.34837671    -0.79900
C639        C  0.66741711  0.43569275  0.33135161     0.80900
N640        N  0.62813354  0.44066264  0.31433823    -0.81600
C641        C  0.97245774  0.17748227  0.34944270     0.78400
N642        N  0.52120015  0.22675917  0.34877759    -0.79900
C643        C  0.56544879  0.23171687  0.33176784     0.80800
N644        N  0.56044371  0.18745166  0.31474388    -0.79900
C645        C  0.51117724  0.13872952  0.31403891     0.80900
N646        N  0.96710689  0.13340604  0.33172410    -0.81600
O647        O  0.76896139  0.06290565  0.44251574    -0.83700
C648        C  0.82883876  0.25613652  0.37117692     0.95700
O649        O  0.78638583  0.20948197  0.37612506    -0.72800
O650        O  0.72985189  0.10227911  0.38697741    -0.76400
Al651      Al  0.76932469  0.16703868  0.41472631     1.49000
C652        C  0.74491873  0.07278013  0.37115672     0.90900
O653        O  0.89870279  0.12769271  0.38724989    -0.82600
O654        O  0.93782717  0.20637228  0.44271296    -0.76200
Al655      Al  0.83382937  0.10249593  0.41487698     1.90100
O656        O  0.92405938  0.21467735  0.37636489    -0.75200
O657        O  0.88131284  0.25708481  0.45346070    -0.75100
O658        O  0.87329443  0.27117053  0.38710734    -0.80700
O659        O  0.79440873  0.23181350  0.44245732    -0.78900
O660        O  0.83383937  0.16703314  0.41483672    -1.15100
O661        O  0.74361960  0.12457042  0.45330996    -0.74300
C662        C  0.73940236  0.07791771  0.45831655     0.96500
C663        C  0.92828411  0.17223085  0.37142203     0.92900
Al664      Al  0.89836385  0.23156980  0.41490665     1.55600
O665        O  0.79153316  0.07696661  0.37621546    -0.78900
C666        C  0.83886602  0.26129250  0.45837946     0.97000
C667        C  0.92275619  0.16184235  0.45856945     0.91900
O668        O  0.87612220  0.11939720  0.45354384    -0.84200
O669        O  0.56544124  0.46132350  0.22032408    -0.83700
C670        C  0.00589278  0.09468063  0.29193034     0.95700
O671        O  0.54832706  0.09049683  0.28689780    -0.72800
O672        O  0.60480468  0.03981759  0.27586805    -0.76400
Al673      Al  0.56522581  0.06511196  0.24822993     1.49000
C674        C  0.58980838  0.99523813  0.29165652     0.90000
O675        O  0.93593214  0.39635306  0.27577332    -0.82600
O676        O  0.89659587  0.43591043  0.22041649    -0.76200
Al677      Al  0.50069448  0.43604061  0.24805694     1.90100
O678        O  0.91066316  0.45800708  0.28677070    -0.75200
O679        O  0.95308212  0.04317359  0.20968876    -0.75100
O680        O  0.96138051  0.06525384  0.27604682    -0.80700
O681        O  0.54004055  0.10480771  0.22059643    -0.78900
O682        O  0.50070447  0.00057967  0.24817086    -1.15100
O683        O  0.59075851  0.04834147  0.20957270    -0.74300
C684        C  0.59495817  0.50590382  0.20452313     0.96500
C685        C  0.90644587  0.41133368  0.29168136     0.92900
Al686      Al  0.93618858  0.00058627  0.24822563     1.55600
O687        O  0.54315803  0.45280233  0.28664872    -0.78900
C688        C  0.49552573  0.08983947  0.20474383     0.97000
C689        C  0.91161936  0.40647140  0.20449162     0.91900
O690        O  0.95825802  0.41066133  0.20944664    -0.84200
C691        C  0.54940005  0.50035326  0.99809152     0.78400
N692        N  0.54927466  0.04929522  0.49815924    -0.79900
C693        C  0.50034876  0.04942260  0.49824095     0.80800
N694        N  0.95142138  0.00035274  0.49825274    -0.79900
C695        C  0.95128518  0.45128534  0.99818939     0.80900
N696        N  0.00033642  0.45140910  0.99810992    -0.81600
C697        C  0.66740693  0.38277855  0.83140055     0.78400
N698        N  0.71632808  0.38264522  0.83133564    -0.79900
C699        C  0.71645946  0.33370976  0.83143450     0.80800
N700        N  0.66739561  0.28476867  0.83160922    -0.79900
C701        C  0.61834404  0.28464345  0.83168633     0.80900
N702        N  0.61847157  0.33370793  0.83157638    -0.81600
C703        C  0.88310058  0.16740918  0.66492823     0.78400
N704        N  0.88296710  0.21634527  0.66483455    -0.79900
C705        C  0.83404872  0.21647932  0.66474680     0.80800
N706        N  0.78511774  0.16741050  0.66475703    -0.79900
C707        C  0.78498648  0.11834165  0.66484723     0.80900
N708        N  0.83403680  0.11846311  0.66493073    -0.81600
C709        C  0.84409135  0.30540179  0.98041994     0.78400
N710        N  0.89337226  0.35411897  0.98114421    -0.79900
C711        C  0.89837233  0.39837658  0.99817723     0.80800
N712        N  0.85411639  0.39341152  0.51517314    -0.79900
C713        C  0.80536910  0.34415305  0.51582244     0.80900
N714        N  0.80001350  0.30007206  0.99810313    -0.81600
C715        C  0.86232332  0.37242914  0.81369722     0.78400
N716        N  0.86767656  0.33370690  0.83140940    -0.79900
C717        C  0.82360443  0.29497509  0.84911250     0.80800
N718        N  0.77435096  0.29443773  0.84841907    -0.79900
C719        C  0.76935182  0.33369461  0.83140010     0.80900
N720        N  0.81360165  0.37296702  0.81438110    -0.81600
C721        C  0.79530265  0.32363679  0.64702336     0.78400
N722        N  0.83403622  0.36772654  0.66473480    -0.79900
C723        C  0.87277997  0.36238992  0.68242409     0.80800
N724        N  0.87332496  0.31366322  0.68172598    -0.79900
C725        C  0.83405597  0.26939320  0.66470490     0.80900
N726        N  0.79477388  0.27436455  0.64769661    -0.81600
C727        C  0.69526242  0.03906461  0.98034292     0.78400
N728        N  0.70060540  0.50034701  0.99805805    -0.79900
C729        C  0.65654721  0.46161923  0.51576508     0.80800
N730        N  0.60729073  0.46108075  0.51507596    -0.79900
C731        C  0.60229423  0.50033774  0.99805125     0.80900
N732        N  0.64653978  0.03960880  0.98102477    -0.81600
C733        C  0.49027325  0.12873244  0.68273053     0.78400
N734        N  0.94100186  0.12817361  0.68202072    -0.79900
C735        C  0.93601021  0.16742862  0.66498597     0.80800
N736        N  0.98026641  0.20670121  0.64797454    -0.79900
C737        C  0.52899463  0.20618021  0.64731040     0.80900
N738        N  0.53433921  0.16746198  0.66502629    -0.81600
C739        C  0.63906765  0.01121008  0.68247434     0.78400
N740        N  0.63372316  0.46713963  0.66475315    -0.79900
C741        C  0.67779093  0.47246198  0.64706986     0.80800
N742        N  0.72707535  0.02117712  0.64779142    -0.79900
C743        C  0.73207187  0.06543573  0.66483046     0.80900
N744        N  0.68781590  0.06047099  0.68182898    -0.81600
O745        O  0.60249303  0.22988225  0.60935807    -0.83700
C746        C  0.66185391  0.42284359  0.53784680     0.95700
O747        O  0.61942194  0.37621195  0.54289664    -0.72800
O748        O  0.56296289  0.26902218  0.55390345    -0.76400
Al749      Al  0.60264892  0.33390634  0.58154784     1.49000
C750        C  0.57792282  0.23945924  0.53805442     0.90900
O751        O  0.73181456  0.29444172  0.55375994    -0.82600
O752        O  0.77135905  0.37334155  0.60912608    -0.76200
Al753      Al  0.66715068  0.26935889  0.58155258     1.90100
O754        O  0.75706935  0.38137818  0.54280378    -0.75200
O755        O  0.71492125  0.42412535  0.62000498    -0.75100
O756        O  0.70641231  0.43791940  0.55367321    -0.80700
O757        O  0.62793517  0.39878427  0.60920242    -0.78900
O758        O  0.66716105  0.33389991  0.58150384    -1.15100
O759        O  0.57725286  0.29160661  0.62020555    -0.74300
C760        C  0.57305817  0.24496765  0.62522780     0.96500
C761        C  0.76127032  0.33891935  0.53785561     0.92900
Al762      Al  0.73168364  0.39843464  0.58141092     1.55600
O763        O  0.62457244  0.24367234  0.54300558    -0.78900
C764        C  0.67249733  0.42833427  0.62501888     0.97000
C765        C  0.75639285  0.32886442  0.62502085     0.91900
O766        O  0.70972346  0.28640775  0.62010630    -0.84200
C767        C  0.96155072  0.15655757  0.98063858     0.78400
N768        N  0.00028349  0.20063712  0.99835087    -0.79900
C769        C  0.53902805  0.19530515  0.51603944     0.80800
N770        N  0.53959350  0.14658194  0.51532512    -0.79900
C771        C  0.00032466  0.10232100  0.99829125     0.80900
N772        N  0.96103854  0.10729601  0.98129237    -0.81600
C773        C  0.62866842  0.98993991  0.81366709     0.78400
N774        N  0.66740123  0.03401801  0.83137996    -0.79900
C775        C  0.70614311  0.02869000  0.84907079     0.80800
N776        N  0.70668898  0.47996260  0.84837679    -0.79900
C777        C  0.66741667  0.43569250  0.83135167     0.80900
N778        N  0.62813361  0.44066267  0.81433840    -0.81600
C779        C  0.97245767  0.17748214  0.84944263     0.78400
N780        N  0.52120016  0.22675922  0.84877756    -0.79900
C781        C  0.56544866  0.23171680  0.83176773     0.80800
N782        N  0.56044370  0.18745166  0.81474393    -0.79900
C783        C  0.51117761  0.13872966  0.81403885     0.80900
N784        N  0.96710669  0.13340597  0.83172417    -0.81600
O785        O  0.76896163  0.06290565  0.94251560    -0.83700
C786        C  0.82884011  0.25613711  0.87117730     0.95700
O787        O  0.78638543  0.20948164  0.87612506    -0.72800
O788        O  0.72985202  0.10227914  0.88697752    -0.76400
Al789      Al  0.76932472  0.16703871  0.91472635     1.49000
C790        C  0.74491885  0.07277986  0.87115671     0.90900
O791        O  0.89870279  0.12769275  0.88724991    -0.82600
O792        O  0.93782738  0.20637268  0.94271282    -0.76200
Al793      Al  0.83382946  0.10249603  0.91487696     1.90100
O794        O  0.92405936  0.21467732  0.87636490    -0.75200
O795        O  0.88131272  0.25708477  0.95346062    -0.75100
O796        O  0.87329406  0.27117025  0.88710714    -0.80700
O797        O  0.79440849  0.23181330  0.94245728    -0.78900
O798        O  0.83383937  0.16703319  0.91483674    -1.15100
O799        O  0.74361984  0.12457037  0.95331000    -0.74300
C800        C  0.73940224  0.07791797  0.95831658     0.96500
C801        C  0.92828407  0.17223095  0.87142205     0.92900
Al802      Al  0.89836392  0.23156979  0.91490665     1.55600
O803        O  0.79153338  0.07696679  0.87621544    -0.78900
C804        C  0.83886667  0.26129279  0.95837964     0.97000
C805        C  0.92275577  0.16184115  0.95856974     0.91900
O806        O  0.87612252  0.11939752  0.95354379    -0.84200
O807        O  0.56544118  0.46132354  0.72032400    -0.83700
C808        C  0.00589238  0.09468054  0.79193028     0.95700
O809        O  0.54832713  0.09049663  0.78689783    -0.72800
O810        O  0.60480476  0.03981788  0.77586796    -0.76400
Al811      Al  0.56522579  0.06511195  0.74822998     1.49000
C812        C  0.58980769  0.99523709  0.79165668     0.90000
O813        O  0.93593187  0.39635316  0.77577341    -0.82600
O814        O  0.89659579  0.43591026  0.72041656    -0.76200
Al815      Al  0.50069446  0.43604050  0.74805695     1.90100
O816        O  0.91066314  0.45800751  0.78677068    -0.75200
O817        O  0.95308216  0.04317357  0.70968876    -0.75100
O818        O  0.96138069  0.06525403  0.77604693    -0.80700
O819        O  0.54004076  0.10480779  0.72059671    -0.78900
O820        O  0.50070446  0.00057962  0.74817092    -1.15100
O821        O  0.59075877  0.04834138  0.70957275    -0.74300
C822        C  0.59495796  0.50590294  0.70452313     0.96500
C823        C  0.90644636  0.41133249  0.79168137     0.92900
Al824      Al  0.93618854  0.00058634  0.74822568     1.55600
O825        O  0.54315800  0.45280210  0.78664867    -0.78900
C826        C  0.49552456  0.08983885  0.70474371     0.97000
C827        C  0.91161917  0.40647146  0.70449174     0.91900
O828        O  0.95825808  0.41066139  0.70944667    -0.84200
C829        C  0.54940038  0.00035359  0.49809160     0.78400
N830        N  0.54927468  0.54929527  0.99815927    -0.79900
C831        C  0.50034921  0.54942279  0.99824097     0.80800
N832        N  0.95142116  0.50035260  0.99825268    -0.79900
C833        C  0.95128494  0.95128507  0.49818944     0.80900
N834        N  0.00033644  0.95140912  0.49810994    -0.81600
C835        C  0.66740670  0.88277865  0.33140048     0.78400
N836        N  0.71632818  0.88264503  0.33133561    -0.79900
C837        C  0.71645912  0.83370993  0.33143450     0.80800
N838        N  0.66739570  0.78476860  0.33160925    -0.79900
C839        C  0.61834409  0.78464342  0.33168641     0.80900
N840        N  0.61847152  0.83370781  0.33157642    -0.81600
C841        C  0.88310004  0.66740892  0.16492829     0.78400
N842        N  0.88296707  0.71634530  0.16483460    -0.79900
C843        C  0.83404855  0.71647935  0.16474686     0.80800
N844        N  0.78511776  0.66741032  0.16475709    -0.79900
C845        C  0.78498567  0.61834189  0.16484734     0.80900
N846        N  0.83403719  0.61846319  0.16493080    -0.81600
C847        C  0.84409198  0.80540216  0.48041992     0.78400
N848        N  0.89337185  0.85411871  0.48114420    -0.79900
C849        C  0.89837285  0.89837687  0.49817728     0.80800
N850        N  0.85411688  0.89341197  0.01517296    -0.79900
C851        C  0.80536827  0.84415235  0.01582248     0.80900
N852        N  0.80001311  0.80007184  0.49810318    -0.81600
C853        C  0.86232435  0.87242904  0.31369698     0.78400
N854        N  0.86767595  0.83370680  0.33140949    -0.79900
C855        C  0.82360638  0.79497563  0.34911236     0.80800
N856        N  0.77435025  0.79443783  0.34841900    -0.79900
C857        C  0.76935281  0.83369452  0.33140021     0.80900
N858        N  0.81360096  0.87296688  0.31438108    -0.81600
C859        C  0.79530251  0.82363678  0.14702336     0.78400
N860        N  0.83403639  0.86772661  0.16473485    -0.79900
C861        C  0.87277984  0.86239010  0.18242404     0.80800
N862        N  0.87332501  0.81366319  0.18172594    -0.79900
C863        C  0.83405590  0.76939325  0.16470490     0.80900
N864        N  0.79477379  0.77436457  0.14769675    -0.81600
C865        C  0.69526181  0.53906474  0.48034282     0.78400
N866        N  0.70060591  0.00034725  0.49805791    -0.79900
C867        C  0.65654722  0.96161913  0.01576503     0.80800
N868        N  0.60729059  0.96108065  0.01507600    -0.79900
C869        C  0.60229326  0.00033740  0.49805142     0.80900
N870        N  0.64654019  0.53960886  0.48102469    -0.81600
C871        C  0.49027138  0.62873201  0.18273048     0.78400
N872        N  0.94100155  0.62817352  0.18202070    -0.79900
C873        C  0.93601044  0.66742861  0.16498591     0.80800
N874        N  0.98026637  0.70670109  0.14797455    -0.79900
C875        C  0.52899314  0.70618051  0.14731037     0.80900
N876        N  0.53433987  0.66746184  0.16502623    -0.81600
C877        C  0.63906801  0.51121028  0.18247424     0.78400
N878        N  0.63372298  0.96713950  0.16475321    -0.79900
C879        C  0.67779092  0.97246204  0.14706984     0.80800
N880        N  0.72707499  0.52117715  0.14779158    -0.79900
C881        C  0.73207242  0.56543555  0.16483022     0.80900
N882        N  0.68781541  0.56047088  0.18182915    -0.81600
O883        O  0.60249285  0.72988241  0.10935810    -0.83700
C884        C  0.66185436  0.92284378  0.03784682     0.95700
O885        O  0.61942188  0.87621195  0.04289667    -0.72800
O886        O  0.56296317  0.76902210  0.05390344    -0.76400
Al887      Al  0.60264890  0.83390638  0.08154786     1.49000
C888        C  0.57792184  0.73945961  0.03805445     0.90900
O889        O  0.73181443  0.79444164  0.05376001    -0.82600
O890        O  0.77135899  0.87334151  0.10912618    -0.76200
Al891      Al  0.66715064  0.76935888  0.08155257     1.90100
O892        O  0.75706923  0.88137814  0.04280389    -0.75200
O893        O  0.71492124  0.92412539  0.12000503    -0.75100
O894        O  0.70641227  0.93791943  0.05367321    -0.80700
O895        O  0.62793513  0.89878426  0.10920246    -0.78900
O896        O  0.66716106  0.83389994  0.08150385    -1.15100
O897        O  0.57725274  0.79160681  0.12020552    -0.74300
C898        C  0.57305875  0.74496703  0.12522757     0.96500
C899        C  0.76127051  0.83891962  0.03785560     0.92900
Al900      Al  0.73168363  0.89843469  0.08141100     1.55600
O901        O  0.62457284  0.74367233  0.04300558    -0.78900
C902        C  0.67249693  0.92833416  0.12501889     0.97000
C903        C  0.75639291  0.82886451  0.12502095     0.91900
O904        O  0.70972342  0.78640769  0.12010636    -0.84200
C905        C  0.96155118  0.65655712  0.48063883     0.78400
N906        N  0.00028305  0.70063715  0.49835077    -0.79900
C907        C  0.53902878  0.69530465  0.01603968     0.80800
N908        N  0.53959336  0.64658232  0.01532504    -0.79900
C909        C  0.00032592  0.60232121  0.49829175     0.80900
N910        N  0.96103812  0.60729619  0.48129217    -0.81600
C911        C  0.62866840  0.48993970  0.31366709     0.78400
N912        N  0.66740126  0.53401808  0.33137990    -0.79900
C913        C  0.70614298  0.52869006  0.34907075     0.80800
N914        N  0.70668892  0.97996316  0.34837680    -0.79900
C915        C  0.66741691  0.93569198  0.33135157     0.80900
N916        N  0.62813352  0.94066312  0.31433830    -0.81600
C917        C  0.97245796  0.67748242  0.34944269     0.78400
N918        N  0.52120006  0.72675910  0.34877759    -0.79900
C919        C  0.56544877  0.73171682  0.33176784     0.80800
N920        N  0.56044368  0.68745162  0.31474393    -0.79900
C921        C  0.51117742  0.63872972  0.31403895     0.80900
N922        N  0.96710678  0.63340594  0.33172411    -0.81600
O923        O  0.76896141  0.56290570  0.44251572    -0.83700
C924        C  0.82883893  0.75613646  0.37117707     0.95700
O925        O  0.78638585  0.70948199  0.37612505    -0.72800
O926        O  0.72985196  0.60227923  0.38697751    -0.76400
Al927      Al  0.76932477  0.66703869  0.41472633     1.49000
C928        C  0.74491890  0.57277986  0.37115663     0.90900
O929        O  0.89870275  0.62769277  0.38724992    -0.82600
O930        O  0.93782731  0.70637258  0.44271293    -0.76200
Al931      Al  0.83382939  0.60249592  0.41487696     1.90100
O932        O  0.92405942  0.71467743  0.37636497    -0.75200
O933        O  0.88131273  0.75708472  0.45346064    -0.75100
O934        O  0.87329445  0.77117048  0.38710724    -0.80700
O935        O  0.79440862  0.73181341  0.44245728    -0.78900
O936        O  0.83383943  0.66703314  0.41483670    -1.15100
O937        O  0.74361959  0.62457043  0.45331000    -0.74300
C938        C  0.73940243  0.57791759  0.45831653     0.96500
C939        C  0.92828398  0.67223074  0.37142211     0.92900
Al940      Al  0.89836388  0.73156978  0.41490666     1.55600
O941        O  0.79153324  0.57696674  0.37621540    -0.78900
C942        C  0.83886629  0.76129267  0.45837958     0.97000
C943        C  0.92275560  0.66184129  0.45856962     0.91900
O944        O  0.87612244  0.61939747  0.45354388    -0.84200
O945        O  0.56544128  0.96132362  0.22032402    -0.83700
C946        C  0.00589265  0.59468065  0.29193030     0.95700
O947        O  0.54832708  0.59049688  0.28689781    -0.72800
O948        O  0.60480480  0.53981787  0.27586798    -0.76400
Al949      Al  0.56522578  0.56511201  0.24822993     1.49000
C950        C  0.58980782  0.49523727  0.29165660     0.90000
O951        O  0.93593203  0.89635318  0.27577332    -0.82600
O952        O  0.89659577  0.93591035  0.22041648    -0.76200
Al953      Al  0.50069447  0.93604057  0.24805695     1.90100
O954        O  0.91066324  0.95800744  0.28677068    -0.75200
O955        O  0.95308224  0.54317366  0.20968872    -0.75100
O956        O  0.96138058  0.56525397  0.27604685    -0.80700
O957        O  0.54004050  0.60480766  0.22059644    -0.78900
O958        O  0.50070447  0.50057967  0.24817084    -1.15100
O959        O  0.59075859  0.54834131  0.20957264    -0.74300
C960        C  0.59495798  0.00590279  0.20452312     0.96500
C961        C  0.90644599  0.91133253  0.29168141     0.92900
Al962      Al  0.93618859  0.50058632  0.24822560     1.55600
O963        O  0.54315779  0.95280206  0.28664870    -0.78900
C964        C  0.49552576  0.58983943  0.20474384     0.97000
C965        C  0.91161933  0.90647143  0.20449163     0.91900
O966        O  0.95825802  0.91066137  0.20944659    -0.84200
C967        C  0.54940051  0.00035443  0.99809146     0.78400
N968        N  0.54927433  0.54929508  0.49815923    -0.79900
C969        C  0.50034950  0.54942289  0.49824097     0.80800
N970        N  0.95142126  0.50035287  0.49825274    -0.79900
C971        C  0.95128586  0.95128542  0.99818935     0.80900
N972        N  0.00033578  0.95140877  0.99810992    -0.81600
C973        C  0.66740660  0.88277806  0.83140048     0.78400
N974        N  0.71632809  0.88264541  0.83133562    -0.79900
C975        C  0.71645919  0.83370939  0.83143450     0.80800
N976        N  0.66739571  0.78476888  0.83160924    -0.79900
C977        C  0.61834362  0.78464289  0.83168636     0.80900
N978        N  0.61847168  0.83370824  0.83157638    -0.81600
C979        C  0.88310070  0.66740959  0.66492817     0.78400
N980        N  0.88296711  0.71634516  0.66483453    -0.79900
C981        C  0.83404840  0.71647915  0.66474679     0.80800
N982        N  0.78511779  0.66741068  0.66475705    -0.79900
C983        C  0.78498656  0.61834153  0.66484723     0.80900
N984        N  0.83403668  0.61846300  0.66493074    -0.81600
C985        C  0.84409129  0.80540196  0.98042006     0.78400
N986        N  0.89337234  0.85411880  0.98114413    -0.79900
C987        C  0.89837211  0.89837675  0.99817740     0.80800
N988        N  0.85411639  0.89341163  0.51517320    -0.79900
C989        C  0.80536884  0.84415260  0.51582237     0.80900
N990        N  0.80001358  0.80007203  0.99810314    -0.81600
C991        C  0.86232339  0.87242819  0.81369758     0.78400
N992        N  0.86767657  0.83370744  0.83140915    -0.79900
C993        C  0.82360428  0.79497445  0.84911274     0.80800
N994        N  0.77435089  0.79443796  0.84841896    -0.79900
C995        C  0.76935167  0.83369409  0.83140026     0.80900
N996        N  0.81360155  0.87296730  0.81438097    -0.81600
C997        C  0.79530283  0.82363703  0.64702337     0.78400
N998        N  0.83403615  0.86772650  0.66473476    -0.79900
C999        C  0.87278006  0.86238990  0.68242420     0.80800
N1000       N  0.87332485  0.81366317  0.68172595    -0.79900
C1001       C  0.83405609  0.76939336  0.66470495     0.80900
N1002       N  0.79477375  0.77436446  0.64769659    -0.81600
C1003       C  0.69526301  0.53906492  0.98034265     0.78400
N1004       N  0.70060595  0.00034742  0.99805789    -0.79900
C1005       C  0.65654726  0.96161936  0.51576501     0.80800
N1006       N  0.60729072  0.96108059  0.51507610    -0.79900
C1007       C  0.60229343  0.00033681  0.99805156     0.80900
N1008       N  0.64653923  0.53960833  0.98102488    -0.81600
C1009       C  0.49027195  0.62873212  0.68273054     0.78400
N1010       N  0.94100174  0.62817366  0.68202068    -0.79900
C1011       C  0.93601018  0.66742849  0.66498604     0.80800
N1012       N  0.98026661  0.70670122  0.64797452    -0.79900
C1013       C  0.52899381  0.70618044  0.64731043     0.80900
N1014       N  0.53433976  0.66746201  0.66502636    -0.81600
C1015       C  0.63906810  0.51121095  0.68247449     0.78400
N1016       N  0.63372321  0.96713994  0.66475328    -0.79900
C1017       C  0.67779103  0.97246184  0.64706978     0.80800
N1018       N  0.72707535  0.52117704  0.64779139    -0.79900
C1019       C  0.73207199  0.56543603  0.66483053     0.80900
N1020       N  0.68781568  0.56047067  0.68182897    -0.81600
O1021       O  0.60249291  0.72988232  0.60935813    -0.83700
C1022       C  0.66185379  0.92284348  0.53784684     0.95700
O1023       O  0.61942195  0.87621199  0.54289670    -0.72800
O1024       O  0.56296288  0.76902219  0.55390339    -0.76400
Al1025     Al  0.60264886  0.83390634  0.58154784     1.49000
C1026       C  0.57792281  0.73945930  0.53805444     0.90900
O1027       O  0.73181456  0.79444174  0.55375996    -0.82600
O1028       O  0.77135905  0.87334158  0.60912607    -0.76200
Al1029     Al  0.66715066  0.76935889  0.58155259     1.90100
O1030       O  0.75706938  0.88137819  0.54280380    -0.75200
O1031       O  0.71492132  0.92412541  0.62000496    -0.75100
O1032       O  0.70641234  0.93791944  0.55367322    -0.80700
O1033       O  0.62793523  0.89878437  0.60920245    -0.78900
O1034       O  0.66716099  0.83389989  0.58150383    -1.15100
O1035       O  0.57725279  0.79160672  0.62020554    -0.74300
C1036       C  0.57305847  0.74496729  0.62522773     0.96500
C1037       C  0.76127024  0.83891918  0.53785563     0.92900
Al1038     Al  0.73168360  0.89843463  0.58141091     1.55600
O1039       O  0.62457241  0.74367229  0.54300559    -0.78900
C1040       C  0.67249712  0.92833421  0.62501893     0.97000
C1041       C  0.75639287  0.82886453  0.62502084     0.91900
O1042       O  0.70972352  0.78640781  0.62010629    -0.84200
C1043       C  0.96155025  0.65655614  0.98063850     0.78400
N1044       N  0.00028375  0.70063759  0.99835098    -0.79900
C1045       C  0.53902796  0.69530523  0.51603938     0.80800
N1046       N  0.53959382  0.64658216  0.51532520    -0.79900
C1047       C  0.00032546  0.60232109  0.99829145     0.80900
N1048       N  0.96103844  0.60729653  0.98129228    -0.81600
C1049       C  0.62866789  0.48993938  0.81366690     0.78400
N1050       N  0.66740160  0.53401807  0.83138008    -0.79900
C1051       C  0.70614250  0.52869029  0.84907056     0.80800
N1052       N  0.70668883  0.97996272  0.84837674    -0.79900
C1053       C  0.66741682  0.93569261  0.83135172     0.80900
N1054       N  0.62813354  0.94066256  0.81433832    -0.81600
C1055       C  0.97245804  0.67748253  0.84944262     0.78400
N1056       N  0.52119986  0.72675894  0.84877757    -0.79900
C1057       C  0.56544900  0.73171723  0.83176771     0.80800
N1058       N  0.56044344  0.68745142  0.81474390    -0.79900
C1059       C  0.51117812  0.63872995  0.81403878     0.80900
N1060       N  0.96710659  0.63340588  0.83172418    -0.81600
O1061       O  0.76896173  0.56290564  0.94251562    -0.83700
C1062       C  0.82883993  0.75613713  0.87117715     0.95700
O1063       O  0.78638543  0.70948161  0.87612511    -0.72800
O1064       O  0.72985187  0.60227920  0.88697750    -0.76400
Al1065     Al  0.76932473  0.66703866  0.91472634     1.49000
C1066       C  0.74491942  0.57277960  0.87115666     0.90900
O1067       O  0.89870280  0.62769279  0.88724985    -0.82600
O1068       O  0.93782725  0.70637222  0.94271292    -0.76200
Al1069     Al  0.83382950  0.60249604  0.91487698     1.90100
O1070       O  0.92405933  0.71467736  0.87636491    -0.75200
O1071       O  0.88131272  0.75708488  0.95346067    -0.75100
O1072       O  0.87329409  0.77117021  0.88710718    -0.80700
O1073       O  0.79440847  0.73181324  0.94245729    -0.78900
O1074       O  0.83383937  0.66703317  0.91483676    -1.15100
O1075       O  0.74361988  0.62457036  0.95330994    -0.74300
C1076       C  0.73940198  0.57791796  0.95831667     0.96500
C1077       C  0.92828396  0.67223070  0.87142209     0.92900
Al1078     Al  0.89836393  0.73156979  0.91490666     1.55600
O1079       O  0.79153310  0.57696671  0.87621547    -0.78900
C1080       C  0.83886692  0.76129281  0.95837960     0.97000
C1081       C  0.92275681  0.66184263  0.95856956     0.91900
O1082       O  0.87612216  0.61939711  0.95354375    -0.84200
O1083       O  0.56544108  0.96132343  0.72032405    -0.83700
C1084       C  0.00589239  0.59468049  0.79193027     0.95700
O1085       O  0.54832721  0.59049663  0.78689780    -0.72800
O1086       O  0.60480473  0.53981778  0.77586799    -0.76400
Al1087     Al  0.56522584  0.56511195  0.74822998     1.49000
C1088       C  0.58980808  0.49523749  0.79165670     0.90000
O1089       O  0.93593191  0.89635303  0.77577338    -0.82600
O1090       O  0.89659592  0.93591033  0.72041655    -0.76200
Al1091     Al  0.50069442  0.93604054  0.74805694     1.90100
O1092       O  0.91066306  0.95800717  0.78677076    -0.75200
O1093       O  0.95308219  0.54317365  0.70968876    -0.75100
O1094       O  0.96138062  0.56525393  0.77604691    -0.80700
O1095       O  0.54004053  0.60480773  0.72059660    -0.78900
O1096       O  0.50070453  0.50057967  0.74817094    -1.15100
O1097       O  0.59075872  0.54834148  0.70957274    -0.74300
C1098       C  0.59495827  0.00590397  0.70452307     0.96500
C1099       C  0.90644633  0.91133347  0.79168131     0.92900
Al1100     Al  0.93618851  0.50058624  0.74822568     1.55600
O1101       O  0.54315816  0.95280226  0.78664868    -0.78900
C1102       C  0.49552551  0.58983926  0.70474383     0.97000
C1103       C  0.91161901  0.90647158  0.70449175     0.91900
O1104       O  0.95825815  0.91066136  0.70944669    -0.84200
loop_ 
_geom_bond_atom_site_label_1 
_geom_bond_atom_site_label_2 
_geom_bond_distance 
_geom_bond_site_symmetry_2 
_ccdc_geom_bond_type 
C1           C41   1.467       .  S
C1          N416   1.358       .  A
C1          N558   1.359       .  A
N2            C3   1.359       .  A
N2          C415   1.358       .  A
C3          C771   1.467       .  S
C3          N556   1.359   1_455  A
N4          C555   1.359       .  A
N4          C419   1.358   1_545  A
C5           C21   1.467       .  S
C5            N6   1.359       .  A
C5          N418   1.358       .  A
N6          C553   1.359       .  A
C7           C87   1.467       .  S
C7            N8   1.359       .  A
C7           N12   1.359       .  A
N8            C9   1.358       .  A
C9           C29   1.467       .  S
C9           N10   1.359       .  A
N10          C11   1.359       .  A
C11          C91   1.467       .  S
C11          N12   1.358       .  A
C13          C45   1.467       .  S
C13          N14   1.358       .  A
C13          N18   1.359       .  A
N14          C15   1.358       .  A
C15          C35   1.467       .  S
C15          N16   1.359       .  A
N16          C17   1.358       .  A
C17          C53   1.467       .  S
C17          N18   1.359       .  A
C19         C114   1.463       .  S
C19          N20   1.359       .  A
C19          N24   1.361       .  A
N20          C21   1.354       .  A
C21         N160   1.354       .  A
N22          C23   1.359       .  A
N22         C159   1.354   1_554  A
C23          C71   1.463       .  S
C23         N162   1.361   1_554  A
N24         C161   1.361       .  A
C25         C133   1.463       .  S
C25          N26   1.361       .  A
C25          N30   1.359       .  A
N26          C27   1.361       .  A
C27          C96   1.463       .  S
C27          N28   1.359       .  A
N28          C29   1.354       .  A
C29          N30   1.354       .  A
C31          C75   1.463       .  S
C31          N32   1.361       .  A
C31          N36   1.359       .  A
N32          C33   1.361       .  A
C33         C137   1.463       .  S
C33          N34   1.359       .  A
N34          C35   1.354       .  A
C35          N36   1.354       .  A
C37         C110   1.463       .  S
C37          N42   1.359       .  A
C37         N314   1.361       .  A
N38         C313   1.361       .  A
N38         C177   1.361       .  A
C39          C56   1.463       .  S
C39          N40   1.359       .  A
C39         N176   1.361   1_554  A
N40         C179   1.354   1_554  A
C41         N178   1.354       .  A
C41         N318   1.354       .  A
N42         C317   1.354       .  A
C43         C136   1.463       .  S
C43          N48   1.361   1_655  A
C43         N596   1.359       .  A
N44          C45   1.354       .  A
N44         C595   1.359       .  A
C45          N46   1.354       .  A
N46         C599   1.359       .  A
C47          C70   1.463       .  S
C47          N48   1.361       .  A
C47         N598   1.359   1_455  A
C49         C408   1.463       .  S
C49          N54   1.359       .  A
C49         N326   1.361   1_545  A
N50          C51   1.361       .  A
N50         C325   1.361       .  A
C51          C74   1.463       .  S
C51         N328   1.359       .  A
N52          C53   1.354       .  A
N52         C327   1.359   1_545  A
C53          N54   1.354       .  A
O55          C70   1.264       .  A
O55         Al63   1.931       .  S
C56          O66   1.264       .  A
C56          O57   1.256       .  A
O57         Al59   1.874       .  S
O58          C60   1.264       .  A
O58         Al59   1.930       .  S
Al59         O67   1.930       .  S
Al59         O69   1.874       .  S
Al59         O68   1.789       .  S
C60          C79   1.463       .  S
C60          O73   1.256       .  A
O61          C71   1.264       .  A
O61         Al63   1.931       .  S
O62          C75   1.264       .  A
O62         Al72   1.931       .  S
Al63         O76   1.874       .  S
Al63         O73   1.874       .  S
Al63         O68   1.789       .  S
O64          C71   1.256       .  A
O64         Al72   1.874       .  S
O65          C74   1.256       .  A
O65         Al72   1.874       .  S
O66         Al72   1.930       .  S
O67          C74   1.264       .  A
O68         Al72   1.789       .  S
O69          C70   1.256       .  A
C75          O76   1.256       .  A
C77         C115   1.463       .  S
C77          N78   1.361       .  A
C77          N82   1.359       .  A
N78         C769   1.361       .  A
C79          N80   1.359       .  A
C79         N768   1.361   1_554  A
N80         C771   1.354   1_554  A
C81         C693   1.467       .  S
C81          N82   1.354       .  A
C81         N770   1.354       .  A
C83         C122   1.463       .  S
C83          N84   1.361   1_565  A
C83         N364   1.359       .  A
N84          C85   1.361       .  A
C85         C100   1.463       .  S
C85         N362   1.359   1_545  A
N86          C87   1.354       .  A
N86         C361   1.359       .  A
C87          N88   1.354       .  A
N88         C359   1.359       .  A
C89         C111   1.463       .  S
C89          N94   1.361       .  A
C89         N642   1.359       .  A
N90          C91   1.354       .  A
N90         C641   1.359   1_455  A
C91          N92   1.354       .  A
N92          C93   1.359       .  A
C93         C670   1.463       .  S
C93         N646   1.361   1_455  A
N94         C645   1.361       .  A
O95         C110   1.264       .  A
O95        Al103   1.931       .  S
C96         O106   1.264       .  A
C96          O97   1.256       .  A
O97         Al99   1.874       .  S
O98         C100   1.264       .  A
O98         Al99   1.930       .  S
Al99        O107   1.931       .  S
Al99        O109   1.874       .  S
Al99        O108   1.789       .  S
C100        O113   1.256       .  A
O101        C111   1.264       .  A
O101       Al103   1.931       .  S
O102        C115   1.264       .  A
O102       Al112   1.930       .  S
Al103       O116   1.874       .  S
Al103       O113   1.874       .  S
Al103       O108   1.789       .  S
O104        C111   1.256       .  A
O104       Al112   1.874       .  S
O105        C114   1.256       .  A
O105       Al112   1.874       .  S
O106       Al112   1.931       .  S
O107        C114   1.264       .  A
O108       Al112   1.789       .  S
O109        C110   1.256       .  A
C115        O116   1.256       .  A
O117        C132   1.264       .  A
O117       Al125   1.930       .  S
C118        C645   1.463       .  S
C118        O128   1.264       .  A
C118        O671   1.256       .  A
O119        C670   1.256       .  A
O119       Al121   1.874       .  S
O120        C122   1.264   1_545  A
O120       Al121   1.930       .  S
Al121       O129   1.931       .  S
Al121       O131   1.874       .  S
Al121       O130   1.789       .  S
C122        O411   1.256       .  A
O123        C133   1.264       .  A
O123       Al677   1.931       .  S
O124        C137   1.264       .  A
O124       Al410   1.930       .  S
Al125       O135   1.874       .  S
Al125       O675   1.931   1_455  S
Al125       O690   1.874   1_455  S
Al125       O406   1.789       .  S
O126        C133   1.256       .  A
O126       Al410   1.874       .  S
O127        C688   1.256       .  A
O127       Al134   1.874       .  S
O128       Al134   1.930       .  S
O129        C136   1.264   1_455  A
O130       Al401   1.789   1_545  S
O130       Al686   1.789   1_455  S
O131        C408   1.256       .  A
C132        C325   1.463       .  S
C132        O407   1.256       .  A
Al134       O400   1.930   1_545  S
Al134       O402   1.874   1_545  S
Al134       O682   1.789       .  S
O135        C398   1.256       .  A
C136        O679   1.256       .  A
C137        O138   1.256       .  A
O138       Al677   1.874       .  S
C139        C179   1.467       .  S
C139        N278   1.358       .  A
C139        N696   1.359       .  A
N140        C277   1.358       .  A
N140        C141   1.359       .  A
C141        C633   1.467       .  S
C141        N694   1.358   1_455  A
N142        C693   1.358       .  A
N142        C281   1.358   1_545  A
C143        C159   1.467       .  S
C143        N280   1.358       .  A
C143        N144   1.359       .  A
N144        C691   1.359       .  A
C145        C225   1.467       .  S
C145        N146   1.358       .  A
C145        N150   1.359       .  A
N146        C147   1.358       .  A
C147        C167   1.467       .  S
C147        N148   1.359       .  A
N148        C149   1.358       .  A
C149        C229   1.467       .  S
C149        N150   1.358       .  A
C151        C183   1.467       .  S
C151        N152   1.358       .  A
C151        N156   1.359       .  A
N152        C153   1.358       .  A
C153        C173   1.467       .  S
C153        N154   1.359       .  A
N154        C155   1.358       .  A
C155        C191   1.467       .  S
C155        N156   1.359       .  A
C157        C252   1.463       .  S
C157        N158   1.359       .  A
C157        N162   1.361       .  A
N158        C159   1.354       .  A
N160        C161   1.359       .  A
C161        C209   1.463       .  S
C163        C271   1.463       .  S
C163        N164   1.361       .  A
C163        N168   1.359       .  A
N164        C165   1.361       .  A
C165        C234   1.463       .  S
C165        N166   1.359       .  A
N166        C167   1.354       .  A
C167        N168   1.354       .  A
C169        C213   1.463       .  S
C169        N170   1.361       .  A
C169        N174   1.359       .  A
N170        C171   1.361       .  A
C171        C275   1.463       .  S
C171        N172   1.359       .  A
N172        C173   1.354       .  A
C173        N174   1.354       .  A
C175        C248   1.463       .  S
C175        N452   1.361       .  A
C175        N180   1.359       .  A
N176        C451   1.361       .  A
C177        C194   1.463       .  S
C177        N178   1.359       .  A
C179        N456   1.354       .  A
N180        C455   1.354       .  A
C181        C274   1.463       .  S
C181        N734   1.359       .  A
C181        N186   1.361   1_655  A
N182        C733   1.359       .  A
N182        C183   1.354       .  A
C183        N184   1.354       .  A
N184        C737   1.359       .  A
C185        C208   1.463       .  S
C185        N736   1.359   1_455  A
C185        N186   1.361       .  A
C187        C546   1.463       .  S
C187        N464   1.361   1_545  A
C187        N192   1.359       .  A
N188        C463   1.361       .  A
N188        C189   1.361       .  A
C189        C212   1.463       .  S
C189        N466   1.359       .  A
N190        C465   1.359   1_545  A
N190        C191   1.354       .  A
C191        N192   1.354       .  A
O193        C208   1.264       .  A
O193       Al201   1.931       .  S
C194        O204   1.264       .  A
C194        O195   1.256       .  A
O195       Al197   1.874       .  S
O196        C198   1.264       .  A
O196       Al197   1.930       .  S
Al197       O205   1.930       .  S
Al197       O207   1.874       .  S
Al197       O206   1.789       .  S
C198        C217   1.463       .  S
C198        O211   1.256       .  A
O199        C209   1.264       .  A
O199       Al201   1.931       .  S
O200        C213   1.264       .  A
O200       Al210   1.931       .  S
Al201       O214   1.874       .  S
Al201       O211   1.874       .  S
Al201       O206   1.789       .  S
O202        C209   1.256       .  A
O202       Al210   1.874       .  S
O203        C212   1.256       .  A
O203       Al210   1.874       .  S
O204       Al210   1.930       .  S
O205        C212   1.264       .  A
O206       Al210   1.789       .  S
O207        C208   1.256       .  A
C213        O214   1.256       .  A
C215        C253   1.463       .  S
C215        N216   1.361       .  A
C215        N220   1.359       .  A
N216        C631   1.361   1_556  A
C217        N630   1.361       .  A
C217        N218   1.359       .  A
N218        C633   1.354       .  A
C219        C555   1.467       .  S
C219        N632   1.354   1_556  A
C219        N220   1.354       .  A
C221        C260   1.463       .  S
C221        N222   1.361   1_565  A
C221        N502   1.359       .  A
N222        C223   1.361       .  A
C223        C238   1.463       .  S
C223        N500   1.359   1_545  A
N224        C499   1.359       .  A
N224        C225   1.354       .  A
C225        N226   1.354       .  A
N226        C497   1.359       .  A
C227        C249   1.463       .  S
C227        N780   1.359       .  A
C227        N232   1.361       .  A
N228        C779   1.359   1_455  A
N228        C229   1.354       .  A
C229        N230   1.354       .  A
N230        C231   1.359       .  A
C231        C808   1.463       .  S
C231        N784   1.361   1_455  A
N232        C783   1.361       .  A
O233        C248   1.264       .  A
O233       Al241   1.931       .  S
C234        O244   1.264       .  A
C234        O235   1.256       .  A
O235       Al237   1.874       .  S
O236        C238   1.264       .  A
O236       Al237   1.930       .  S
Al237       O245   1.931       .  S
Al237       O247   1.874       .  S
Al237       O246   1.789       .  S
C238        O251   1.256       .  A
O239        C249   1.264       .  A
O239       Al241   1.931       .  S
O240        C253   1.264       .  A
O240       Al250   1.930       .  S
Al241       O254   1.874       .  S
Al241       O251   1.874       .  S
Al241       O246   1.789       .  S
O242        C249   1.256       .  A
O242       Al250   1.874       .  S
O243        C252   1.256       .  A
O243       Al250   1.874       .  S
O244       Al250   1.931       .  S
O245        C252   1.264       .  A
O246       Al250   1.789       .  S
O247        C248   1.256       .  A
C253        O254   1.256       .  A
O255        C270   1.264       .  A
O255       Al263   1.930       .  S
C256        C783   1.463       .  S
C256        O266   1.264       .  A
C256        O809   1.256       .  A
O257        C808   1.256       .  A
O257       Al259   1.874       .  S
O258        C260   1.264   1_545  A
O258       Al259   1.930       .  S
Al259       O267   1.931       .  S
Al259       O269   1.874       .  S
Al259       O268   1.789       .  S
C260        O549   1.256       .  A
O261        C271   1.264       .  A
O261       Al815   1.931       .  S
O262        C275   1.264       .  A
O262       Al548   1.930       .  S
Al263       O813   1.931   1_455  S
Al263       O828   1.874   1_455  S
Al263       O273   1.874       .  S
Al263       O544   1.789       .  S
O264        C271   1.256       .  A
O264       Al548   1.874       .  S
O265        C826   1.256       .  A
O265       Al272   1.874       .  S
O266       Al272   1.930       .  S
O267        C274   1.264   1_455  A
O268       Al539   1.789   1_545  S
O268       Al824   1.789   1_455  S
O269        C546   1.256       .  A
C270        C463   1.463       .  S
C270        O545   1.256       .  A
Al272       O538   1.930   1_545  S
Al272       O540   1.874   1_545  S
Al272       O820   1.789       .  S
O273        C536   1.256       .  A
C274        O817   1.256       .  A
C275        O276   1.256       .  A
O276       Al815   1.874       .  S
C277        C317   1.467       .  S
C277        N834   1.359   1_545  A
N278        C279   1.359       .  A
C279       C1047   1.467       .  S
C279        N832   1.358   1_455  A
N280        C831   1.359       .  A
C281        C297   1.467       .  S
C281        N282   1.359       .  A
N282        C829   1.359   1_565  A
C283        C363   1.467       .  S
C283        N284   1.358       .  A
C283        N288   1.359       .  A
N284        C285   1.358       .  A
C285        C305   1.467       .  S
C285        N286   1.359       .  A
N286        C287   1.359       .  A
C287        C367   1.467       .  S
C287        N288   1.358       .  A
C289        C321   1.467       .  S
C289        N290   1.358       .  A
C289        N294   1.359       .  A
N290        C291   1.358       .  A
C291        C311   1.467       .  S
C291        N292   1.359       .  A
N292        C293   1.358       .  A
C293        C329   1.467       .  S
C293        N294   1.359       .  A
C295        C390   1.463       .  S
C295        N296   1.359       .  A
C295        N300   1.361       .  A
N296        C297   1.354       .  A
C297        N436   1.354       .  A
N298        C435   1.354   1_554  A
N298        C299   1.359       .  A
C299        C347   1.463       .  S
C299        N438   1.361   1_554  A
N300        C437   1.361       .  A
C301        C409   1.463       .  S
C301        N302   1.361       .  A
C301        N306   1.359       .  A
N302        C303   1.361       .  A
C303        C372   1.463       .  S
C303        N304   1.359       .  A
N304        C305   1.354       .  A
C305        N306   1.354       .  A
C307        C351   1.463       .  S
C307        N308   1.361       .  A
C307        N312   1.359       .  A
N308        C309   1.361       .  A
C309        C413   1.463       .  S
C309        N310   1.359       .  A
N310        C311   1.354       .  A
C311        N312   1.354       .  A
C313        C386   1.463       .  S
C313        N318   1.359       .  A
N314        C453   1.361   1_545  A
C315        C332   1.463       .  S
C315        N452   1.361   1_564  A
C315        N316   1.359       .  A
N316        C455   1.354   1_564  A
C317        N454   1.354   1_545  A
C319        C412   1.463       .  S
C319        N872   1.359       .  A
C319        N324   1.361   1_655  A
N320        C871   1.359       .  A
N320        C321   1.354       .  A
C321        N322   1.354       .  A
N322        C875   1.359       .  A
C323        C346   1.463       .  S
C323        N874   1.359   1_455  A
C323        N324   1.361       .  A
C325        N330   1.359       .  A
N326        C327   1.361       .  A
C327        C350   1.463       .  S
N328        C329   1.354       .  A
C329        N330   1.354       .  A
O331        C346   1.264       .  A
O331       Al339   1.931       .  S
C332        O342   1.264       .  A
C332        O333   1.256       .  A
O333       Al335   1.874       .  S
O334        C336   1.264       .  A
O334       Al335   1.930       .  S
Al335       O343   1.930       .  S
Al335       O345   1.874       .  S
Al335       O344   1.789       .  S
C336        C355   1.463       .  S
C336        O349   1.256       .  A
O337        C347   1.264       .  A
O337       Al339   1.931       .  S
O338        C351   1.264       .  A
O338       Al348   1.931       .  S
Al339       O352   1.874       .  S
Al339       O349   1.874       .  S
Al339       O344   1.789       .  S
O340        C347   1.256       .  A
O340       Al348   1.874       .  S
O341        C350   1.256       .  A
O341       Al348   1.874       .  S
O342       Al348   1.930       .  S
O343        C350   1.264       .  A
O344       Al348   1.789       .  S
O345        C346   1.256       .  A
C351        O352   1.256       .  A
C353        C391   1.463       .  S
C353        N354   1.361       .  A
C353        N358   1.359       .  A
N354       C1045   1.361       .  A
C355       N1044   1.361   1_554  A
C355        N356   1.359       .  A
N356       C1047   1.354   1_554  A
C357        C969   1.467       .  S
C357       N1046   1.354       .  A
C357        N358   1.354       .  A
C359        C398   1.463       .  S
C359        N360   1.361       .  A
N360        C361   1.361       .  A
C361        C376   1.463       .  S
N362        C363   1.354       .  A
C363        N364   1.354       .  A
C365        C387   1.463       .  S
C365        N918   1.359       .  A
C365        N370   1.361       .  A
N366        C917   1.359   1_455  A
N366        C367   1.354       .  A
C367        N368   1.354       .  A
N368        C369   1.359       .  A
C369        C946   1.463       .  S
C369        N922   1.361   1_455  A
N370        C921   1.361       .  A
O371        C386   1.264       .  A
O371       Al379   1.931       .  S
C372        O382   1.264       .  A
C372        O373   1.256       .  A
O373       Al375   1.874       .  S
O374        C376   1.264       .  A
O374       Al375   1.930       .  S
Al375       O383   1.931       .  S
Al375       O385   1.874       .  S
Al375       O384   1.789       .  S
C376        O389   1.256       .  A
O377        C387   1.264       .  A
O377       Al379   1.931       .  S
O378        C391   1.264       .  A
O378       Al388   1.930       .  S
Al379       O392   1.874       .  S
Al379       O389   1.874       .  S
Al379       O384   1.789       .  S
O380        C387   1.256       .  A
O380       Al388   1.874       .  S
O381        C390   1.256       .  A
O381       Al388   1.874       .  S
O382       Al388   1.931       .  S
O383        C390   1.264       .  A
O384       Al388   1.789       .  S
O385        C386   1.256       .  A
C391        O392   1.256       .  A
O393        C408   1.264   1_565  A
O393       Al401   1.930       .  S
C394        C921   1.463       .  S
C394        O404   1.264       .  A
C394        O947   1.256       .  A
O395        C946   1.256       .  A
O395       Al397   1.874       .  S
O396        C398   1.264       .  A
O396       Al397   1.930       .  S
Al397       O405   1.931       .  S
Al397       O407   1.874       .  S
Al397       O406   1.789       .  S
O399        C409   1.264       .  A
O399       Al953   1.931       .  S
O400        C413   1.264       .  A
Al401       O951   1.931   1_455  S
Al401       O966   1.874   1_455  S
Al401       O411   1.874       .  S
O402        C409   1.256       .  A
O403        C964   1.256       .  A
O403       Al410   1.874       .  S
O404       Al410   1.930       .  S
O405        C412   1.264   1_455  A
O406       Al962   1.789   1_455  S
Al410       O958   1.789       .  S
C412        O955   1.256       .  A
C413        O414   1.256       .  A
O414       Al953   1.874       .  S
C415        C455   1.467       .  S
C415        N972   1.359   1_545  A
N416        C417   1.359       .  A
C417        C909   1.467       .  S
C417        N970   1.358   1_455  A
N418        C969   1.359       .  A
C419        C435   1.467       .  S
C419        N420   1.359       .  A
N420        C967   1.359   1_565  A
C421        C501   1.467       .  S
C421        N422   1.358       .  A
C421        N426   1.359       .  A
N422        C423   1.358       .  A
C423        C443   1.467       .  S
C423        N424   1.359       .  A
N424        C425   1.359       .  A
C425        C505   1.467       .  S
C425        N426   1.358       .  A
C427        C459   1.467       .  S
C427        N428   1.358       .  A
C427        N432   1.359       .  A
N428        C429   1.358       .  A
C429        C449   1.467       .  S
C429        N430   1.359       .  A
N430        C431   1.358       .  A
C431        C467   1.467       .  S
C431        N432   1.359       .  A
C433        C528   1.463       .  S
C433        N434   1.359       .  A
C433        N438   1.361       .  A
N434        C435   1.354       .  A
N436        C437   1.359       .  A
C437        C485   1.463       .  S
C439        C547   1.463       .  S
C439        N440   1.361       .  A
C439        N444   1.359       .  A
N440        C441   1.361       .  A
C441        C510   1.463       .  S
C441        N442   1.359       .  A
N442        C443   1.354       .  A
C443        N444   1.354       .  A
C445        C489   1.463       .  S
C445        N446   1.361       .  A
C445        N450   1.359       .  A
N446        C447   1.361       .  A
C447        C551   1.463       .  S
C447        N448   1.359       .  A
N448        C449   1.354       .  A
C449        N450   1.354       .  A
C451        C524   1.463       .  S
C451        N456   1.359       .  A
C453        C470   1.463       .  S
C453        N454   1.359       .  A
C457        C550   1.463       .  S
C457       N1010   1.359       .  A
C457        N462   1.361   1_655  A
N458       C1009   1.359       .  A
N458        C459   1.354       .  A
C459        N460   1.354       .  A
N460       C1013   1.359       .  A
C461        C484   1.463       .  S
C461       N1012   1.359   1_455  A
C461        N462   1.361       .  A
C463        N468   1.359       .  A
N464        C465   1.361       .  A
C465        C488   1.463       .  S
N466        C467   1.354       .  A
C467        N468   1.354       .  A
O469        C484   1.264       .  A
O469       Al477   1.931       .  S
C470        O480   1.264       .  A
C470        O471   1.256       .  A
O471       Al473   1.874       .  S
O472        C474   1.264       .  A
O472       Al473   1.930       .  S
Al473       O481   1.930       .  S
Al473       O483   1.874       .  S
Al473       O482   1.789       .  S
C474        C493   1.463       .  S
C474        O487   1.256       .  A
O475        C485   1.264       .  A
O475       Al477   1.931       .  S
O476        C489   1.264       .  A
O476       Al486   1.931       .  S
Al477       O490   1.874       .  S
Al477       O487   1.874       .  S
Al477       O482   1.789       .  S
O478        C485   1.256       .  A
O478       Al486   1.874       .  S
O479        C488   1.256       .  A
O479       Al486   1.874       .  S
O480       Al486   1.930       .  S
O481        C488   1.264       .  A
O482       Al486   1.789       .  S
O483        C484   1.256       .  A
C489        O490   1.256       .  A
C491        C529   1.463       .  S
C491        N492   1.361       .  A
C491        N496   1.359       .  A
N492        C907   1.361   1_556  A
C493        N906   1.361       .  A
C493        N494   1.359       .  A
N494        C909   1.354       .  A
C495        C831   1.467       .  S
C495        N908   1.354   1_556  A
C495        N496   1.354       .  A
C497        C536   1.463       .  S
C497        N498   1.361       .  A
N498        C499   1.361       .  A
C499        C514   1.463       .  S
N500        C501   1.354       .  A
C501        N502   1.354       .  A
C503        C525   1.463       .  S
C503       N1056   1.359       .  A
C503        N508   1.361       .  A
N504       C1055   1.359   1_455  A
N504        C505   1.354       .  A
C505        N506   1.354       .  A
N506        C507   1.359       .  A
C507       C1084   1.463       .  S
C507       N1060   1.361   1_455  A
N508       C1059   1.361       .  A
O509        C524   1.264       .  A
O509       Al517   1.931       .  S
C510        O520   1.264       .  A
C510        O511   1.256       .  A
O511       Al513   1.874       .  S
O512        C514   1.264       .  A
O512       Al513   1.930       .  S
Al513       O521   1.931       .  S
Al513       O523   1.874       .  S
Al513       O522   1.789       .  S
C514        O527   1.256       .  A
O515        C525   1.264       .  A
O515       Al517   1.931       .  S
O516        C529   1.264       .  A
O516       Al526   1.930       .  S
Al517       O530   1.874       .  S
Al517       O527   1.874       .  S
Al517       O522   1.789       .  S
O518        C525   1.256       .  A
O518       Al526   1.874       .  S
O519        C528   1.256       .  A
O519       Al526   1.874       .  S
O520       Al526   1.931       .  S
O521        C528   1.264       .  A
O522       Al526   1.789       .  S
O523        C524   1.256       .  A
C529        O530   1.256       .  A
O531        C546   1.264   1_565  A
O531       Al539   1.930       .  S
C532       C1059   1.463       .  S
C532        O542   1.264       .  A
C532       O1085   1.256       .  A
O533       C1084   1.256       .  A
O533       Al535   1.874       .  S
O534        C536   1.264       .  A
O534       Al535   1.930       .  S
Al535       O543   1.931       .  S
Al535       O545   1.874       .  S
Al535       O544   1.789       .  S
O537        C547   1.264       .  A
O537      Al1091   1.931       .  S
O538        C551   1.264       .  A
Al539      O1089   1.931   1_455  S
Al539      O1104   1.874   1_455  S
Al539       O549   1.874       .  S
O540        C547   1.256       .  A
O541       C1102   1.256       .  A
O541       Al548   1.874       .  S
O542       Al548   1.930       .  S
O543        C550   1.264   1_455  A
O544      Al1100   1.789   1_455  S
Al548      O1096   1.789       .  S
C550       O1093   1.256       .  A
C551        O552   1.256       .  A
O552      Al1091   1.874       .  S
C553        C593   1.467       .  S
C553        N968   1.358       .  A
N554        C967   1.358       .  A
N554        C555   1.359       .  A
N556        C971   1.358   1_545  A
C557        C573   1.467       .  S
C557        N970   1.358       .  A
C557        N558   1.359   1_655  A
C559        C639   1.467       .  S
C559        N560   1.358       .  A
C559        N564   1.359       .  A
N560        C561   1.358       .  A
C561        C581   1.467       .  S
C561        N562   1.359       .  A
N562        C563   1.359       .  A
C563        C643   1.467       .  S
C563        N564   1.358       .  A
C565        C597   1.467       .  S
C565        N566   1.358       .  A
C565        N570   1.359       .  A
N566        C567   1.358       .  A
C567        C587   1.467       .  S
C567        N568   1.359       .  A
N568        C569   1.358       .  A
C569        C605   1.467       .  S
C569        N570   1.359       .  A
C571        C666   1.463       .  S
C571        N572   1.359       .  A
C571        N576   1.361       .  A
N572        C573   1.354       .  A
C573        N712   1.354       .  A
N574        C711   1.354   1_554  A
N574        C575   1.359       .  A
C575        C623   1.463       .  S
C575        N714   1.361   1_554  A
N576        C713   1.361       .  A
C577        C685   1.463       .  S
C577        N578   1.361       .  A
C577        N582   1.359       .  A
N578        C579   1.361       .  A
C579        C648   1.463       .  S
C579        N580   1.359       .  A
N580        C581   1.354       .  A
C581        N582   1.354       .  A
C583        C627   1.463       .  S
C583        N584   1.361       .  A
C583        N588   1.359       .  A
N584        C585   1.361       .  A
C585        C689   1.463       .  S
C585        N586   1.359       .  A
N586        C587   1.354       .  A
C587        N588   1.354       .  A
C589        C662   1.463       .  S
C589        N866   1.361       .  A
C589        N594   1.359       .  A
N590        C865   1.361       .  A
N590        C729   1.361       .  A
C591        C608   1.463       .  S
C591        N728   1.361   1_554  A
C591        N592   1.359       .  A
N592        C731   1.354   1_554  A
C593        N730   1.354       .  A
C593        N870   1.354       .  A
N594        C869   1.354       .  A
C595        C688   1.463       .  S
C595        N600   1.361       .  A
N596        C597   1.354       .  A
C597        N598   1.354       .  A
C599        C622   1.463       .  S
C599        N600   1.361       .  A
C601        C960   1.463       .  S
C601        N878   1.361   1_545  A
C601        N606   1.359       .  A
N602        C877   1.361       .  A
N602        C603   1.361       .  A
C603        C626   1.463       .  S
C603        N880   1.359       .  A
N604        C879   1.359   1_545  A
N604        C605   1.354       .  A
C605        N606   1.354       .  A
O607        C622   1.264       .  A
O607       Al615   1.931       .  S
C608        O618   1.264       .  A
C608        O609   1.256       .  A
O609       Al611   1.874       .  S
O610        C612   1.264       .  A
O610       Al611   1.930       .  S
Al611       O619   1.930       .  S
Al611       O621   1.874       .  S
Al611       O620   1.789       .  S
C612        C631   1.463       .  S
C612        O625   1.256       .  A
O613        C623   1.264       .  A
O613       Al615   1.931       .  S
O614        C627   1.264       .  A
O614       Al624   1.931       .  S
Al615       O628   1.874       .  S
Al615       O625   1.874       .  S
Al615       O620   1.789       .  S
O616        C623   1.256       .  A
O616       Al624   1.874       .  S
O617        C626   1.256       .  A
O617       Al624   1.874       .  S
O618       Al624   1.930       .  S
O619        C626   1.264       .  A
O620       Al624   1.789       .  S
O621        C622   1.256       .  A
C627        O628   1.256       .  A
C629        C667   1.463       .  S
C629        N630   1.361   1_655  A
C629        N634   1.359       .  A
C631        N632   1.359       .  A
C633        N634   1.354   1_455  A
C635        C674   1.463       .  S
C635        N636   1.361   1_565  A
C635        N916   1.359       .  A
N636        C637   1.361       .  A
C637        C652   1.463       .  S
C637        N914   1.359   1_545  A
N638        C913   1.359       .  A
N638        C639   1.354       .  A
C639        N640   1.354       .  A
N640        C911   1.359       .  A
C641        C663   1.463       .  S
C641        N646   1.361       .  A
N642        C643   1.354       .  A
C643        N644   1.354       .  A
N644        C645   1.359       .  A
O647        C662   1.264       .  A
O647       Al655   1.931       .  S
C648        O658   1.264       .  A
C648        O649   1.256       .  A
O649       Al651   1.874       .  S
O650        C652   1.264       .  A
O650       Al651   1.930       .  S
Al651       O659   1.931       .  S
Al651       O661   1.874       .  S
Al651       O660   1.789       .  S
C652        O665   1.256       .  A
O653        C663   1.264       .  A
O653       Al655   1.931       .  S
O654        C667   1.264       .  A
O654       Al664   1.930       .  S
Al655       O668   1.874       .  S
Al655       O665   1.874       .  S
Al655       O660   1.789       .  S
O656        C663   1.256       .  A
O656       Al664   1.874       .  S
O657        C666   1.256       .  A
O657       Al664   1.874       .  S
O658       Al664   1.931       .  S
O659        C666   1.264       .  A
O660       Al664   1.789       .  S
O661        C662   1.256       .  A
C667        O668   1.256       .  A
O669        C684   1.264       .  A
O669       Al677   1.930       .  S
C670        O680   1.264   1_455  A
O671       Al673   1.874       .  S
O672        C674   1.264   1_545  A
O672       Al673   1.930       .  S
Al673       O681   1.931       .  S
Al673       O683   1.874       .  S
Al673       O682   1.789       .  S
C674        O963   1.256       .  A
O675        C685   1.264       .  A
O676        C689   1.264       .  A
O676       Al962   1.930       .  S
Al677       O687   1.874       .  S
Al677       O958   1.789       .  S
O678        C685   1.256       .  A
O678       Al962   1.874       .  S
O679       Al686   1.874       .  S
O680       Al686   1.930       .  S
O681        C688   1.264       .  A
O682       Al953   1.789   1_545  S
O683        C960   1.256       .  A
C684        C877   1.463       .  S
C684        O959   1.256       .  A
Al686       O952   1.930   1_545  S
Al686       O954   1.874   1_545  S
O687        C950   1.256       .  A
C689        O690   1.256       .  A
C691        C731   1.467       .  S
C691        N830   1.359       .  A
N692        C829   1.359       .  A
N692        C693   1.359       .  A
N694        C833   1.358   1_545  A
C695        C711   1.467       .  S
C695        N832   1.358       .  A
C695        N696   1.359   1_655  A
C697        C777   1.467       .  S
C697        N698   1.358       .  A
C697        N702   1.359       .  A
N698        C699   1.358       .  A
C699        C719   1.467       .  S
C699        N700   1.359       .  A
N700        C701   1.359       .  A
C701        C781   1.467       .  S
C701        N702   1.358       .  A
C703        C735   1.467       .  S
C703        N704   1.358       .  A
C703        N708   1.359       .  A
N704        C705   1.358       .  A
C705        C725   1.467       .  S
C705        N706   1.359       .  A
N706        C707   1.358       .  A
C707        C743   1.467       .  S
C707        N708   1.359       .  A
C709        C804   1.463       .  S
C709        N710   1.359       .  A
C709        N714   1.361       .  A
N710        C711   1.354       .  A
N712        C713   1.359       .  A
C713        C761   1.463       .  S
C715        C823   1.463       .  S
C715        N716   1.361       .  A
C715        N720   1.359       .  A
N716        C717   1.361       .  A
C717        C786   1.463       .  S
C717        N718   1.359       .  A
N718        C719   1.354       .  A
C719        N720   1.354       .  A
C721        C765   1.463       .  S
C721        N722   1.361       .  A
C721        N726   1.359       .  A
N722        C723   1.361       .  A
C723        C827   1.463       .  S
C723        N724   1.359       .  A
N724        C725   1.354       .  A
C725        N726   1.354       .  A
C727        C800   1.463       .  S
C727       N1004   1.361       .  A
C727        N732   1.359       .  A
N728       C1003   1.361       .  A
C729        C746   1.463       .  S
C729        N730   1.359       .  A
C731       N1008   1.354       .  A
N732       C1007   1.354       .  A
C733        C826   1.463       .  S
C733        N738   1.361       .  A
N734        C735   1.354       .  A
C735        N736   1.354       .  A
C737        C760   1.463       .  S
C737        N738   1.361       .  A
C739       C1098   1.463       .  S
C739       N1016   1.361   1_545  A
C739        N744   1.359       .  A
N740       C1015   1.361       .  A
N740        C741   1.361       .  A
C741        C764   1.463       .  S
C741       N1018   1.359       .  A
N742       C1017   1.359   1_545  A
N742        C743   1.354       .  A
C743        N744   1.354       .  A
O745        C760   1.264       .  A
O745       Al753   1.931       .  S
C746        O756   1.264       .  A
C746        O747   1.256       .  A
O747       Al749   1.874       .  S
O748        C750   1.264       .  A
O748       Al749   1.930       .  S
Al749       O757   1.930       .  S
Al749       O759   1.874       .  S
Al749       O758   1.789       .  S
C750        C769   1.463       .  S
C750        O763   1.256       .  A
O751        C761   1.264       .  A
O751       Al753   1.931       .  S
O752        C765   1.264       .  A
O752       Al762   1.931       .  S
Al753       O766   1.874       .  S
Al753       O763   1.874       .  S
Al753       O758   1.789       .  S
O754        C761   1.256       .  A
O754       Al762   1.874       .  S
O755        C764   1.256       .  A
O755       Al762   1.874       .  S
O756       Al762   1.930       .  S
O757        C764   1.264       .  A
O758       Al762   1.789       .  S
O759        C760   1.256       .  A
C765        O766   1.256       .  A
C767        C805   1.463       .  S
C767        N768   1.361   1_655  A
C767        N772   1.359       .  A
C769        N770   1.359       .  A
C771        N772   1.354   1_455  A
C773        C812   1.463       .  S
C773        N774   1.361   1_565  A
C773       N1054   1.359       .  A
N774        C775   1.361       .  A
C775        C790   1.463       .  S
C775       N1052   1.359   1_545  A
N776       C1051   1.359       .  A
N776        C777   1.354       .  A
C777        N778   1.354       .  A
N778       C1049   1.359       .  A
C779        C801   1.463       .  S
C779        N784   1.361       .  A
N780        C781   1.354       .  A
C781        N782   1.354       .  A
N782        C783   1.359       .  A
O785        C800   1.264       .  A
O785       Al793   1.931       .  S
C786        O796   1.264       .  A
C786        O787   1.256       .  A
O787       Al789   1.874       .  S
O788        C790   1.264       .  A
O788       Al789   1.930       .  S
Al789       O797   1.931       .  S
Al789       O799   1.874       .  S
Al789       O798   1.789       .  S
C790        O803   1.256       .  A
O791        C801   1.264       .  A
O791       Al793   1.931       .  S
O792        C805   1.264       .  A
O792       Al802   1.930       .  S
Al793       O806   1.874       .  S
Al793       O803   1.874       .  S
Al793       O798   1.789       .  S
O794        C801   1.256       .  A
O794       Al802   1.874       .  S
O795        C804   1.256       .  A
O795       Al802   1.874       .  S
O796       Al802   1.931       .  S
O797        C804   1.264       .  A
O798       Al802   1.789       .  S
O799        C800   1.256       .  A
C805        O806   1.256       .  A
O807        C822   1.264       .  A
O807       Al815   1.930       .  S
C808        O818   1.264   1_455  A
O809       Al811   1.874       .  S
O810        C812   1.264   1_545  A
O810       Al811   1.930       .  S
Al811       O819   1.931       .  S
Al811       O821   1.874       .  S
Al811       O820   1.789       .  S
C812       O1101   1.256       .  A
O813        C823   1.264       .  A
O814        C827   1.264       .  A
O814      Al1100   1.930       .  S
Al815       O825   1.874       .  S
Al815      O1096   1.789       .  S
O816        C823   1.256       .  A
O816      Al1100   1.874       .  S
O817       Al824   1.874       .  S
O818       Al824   1.930       .  S
O819        C826   1.264       .  A
O820      Al1091   1.789   1_545  S
O821       C1098   1.256       .  A
C822       C1015   1.463       .  S
C822       O1097   1.256       .  A
Al824      O1090   1.930   1_545  S
Al824      O1092   1.874   1_545  S
O825       C1088   1.256       .  A
C827        O828   1.256       .  A
C829        C869   1.467       .  S
N830        C831   1.359       .  A
C833        C849   1.467       .  S
C833        N834   1.359   1_655  A
C835        C915   1.467       .  S
C835        N836   1.358       .  A
C835        N840   1.359       .  A
N836        C837   1.358       .  A
C837        C857   1.467       .  S
C837        N838   1.359       .  A
N838        C839   1.359       .  A
C839        C919   1.467       .  S
C839        N840   1.358       .  A
C841        C873   1.467       .  S
C841        N842   1.358       .  A
C841        N846   1.359       .  A
N842        C843   1.358       .  A
C843        C863   1.467       .  S
C843        N844   1.359       .  A
N844        C845   1.358       .  A
C845        C881   1.467       .  S
C845        N846   1.359       .  A
C847        C942   1.463       .  S
C847        N848   1.359       .  A
C847        N852   1.361       .  A
N848        C849   1.354       .  A
C849        N988   1.354       .  A
N850        C987   1.354   1_554  A
N850        C851   1.359       .  A
C851        C899   1.463       .  S
C851        N990   1.361   1_554  A
N852        C989   1.361       .  A
C853        C961   1.463       .  S
C853        N854   1.361       .  A
C853        N858   1.359       .  A
N854        C855   1.361       .  A
C855        C924   1.463       .  S
C855        N856   1.359       .  A
N856        C857   1.354       .  A
C857        N858   1.354       .  A
C859        C903   1.463       .  S
C859        N860   1.361       .  A
C859        N864   1.359       .  A
N860        C861   1.361       .  A
C861        C965   1.463       .  S
C861        N862   1.359       .  A
N862        C863   1.354       .  A
C863        N864   1.354       .  A
C865        C938   1.463       .  S
C865        N870   1.359       .  A
N866       C1005   1.361   1_545  A
C867        C884   1.463       .  S
C867       N1004   1.361   1_564  A
C867        N868   1.359       .  A
N868       C1007   1.354   1_564  A
C869       N1006   1.354   1_545  A
C871        C964   1.463       .  S
C871        N876   1.361       .  A
N872        C873   1.354       .  A
C873        N874   1.354       .  A
C875        C898   1.463       .  S
C875        N876   1.361       .  A
C877        N882   1.359       .  A
N878        C879   1.361       .  A
C879        C902   1.463       .  S
N880        C881   1.354       .  A
C881        N882   1.354       .  A
O883        C898   1.264       .  A
O883       Al891   1.931       .  S
C884        O894   1.264       .  A
C884        O885   1.256       .  A
O885       Al887   1.874       .  S
O886        C888   1.264       .  A
O886       Al887   1.930       .  S
Al887       O895   1.930       .  S
Al887       O897   1.874       .  S
Al887       O896   1.789       .  S
C888        C907   1.463       .  S
C888        O901   1.256       .  A
O889        C899   1.264       .  A
O889       Al891   1.931       .  S
O890        C903   1.264       .  A
O890       Al900   1.931       .  S
Al891       O904   1.874       .  S
Al891       O901   1.874       .  S
Al891       O896   1.789       .  S
O892        C899   1.256       .  A
O892       Al900   1.874       .  S
O893        C902   1.256       .  A
O893       Al900   1.874       .  S
O894       Al900   1.930       .  S
O895        C902   1.264       .  A
O896       Al900   1.789       .  S
O897        C898   1.256       .  A
C903        O904   1.256       .  A
C905        C943   1.463       .  S
C905        N906   1.361   1_655  A
C905        N910   1.359       .  A
C907        N908   1.359       .  A
C909        N910   1.354   1_455  A
C911        C950   1.463       .  S
C911        N912   1.361       .  A
N912        C913   1.361       .  A
C913        C928   1.463       .  S
N914        C915   1.354       .  A
C915        N916   1.354       .  A
C917        C939   1.463       .  S
C917        N922   1.361       .  A
N918        C919   1.354       .  A
C919        N920   1.354       .  A
N920        C921   1.359       .  A
O923        C938   1.264       .  A
O923       Al931   1.931       .  S
C924        O934   1.264       .  A
C924        O925   1.256       .  A
O925       Al927   1.874       .  S
O926        C928   1.264       .  A
O926       Al927   1.930       .  S
Al927       O935   1.931       .  S
Al927       O937   1.874       .  S
Al927       O936   1.789       .  S
C928        O941   1.256       .  A
O929        C939   1.264       .  A
O929       Al931   1.931       .  S
O930        C943   1.264       .  A
O930       Al940   1.930       .  S
Al931       O944   1.874       .  S
Al931       O941   1.874       .  S
Al931       O936   1.789       .  S
O932        C939   1.256       .  A
O932       Al940   1.874       .  S
O933        C942   1.256       .  A
O933       Al940   1.874       .  S
O934       Al940   1.931       .  S
O935        C942   1.264       .  A
O936       Al940   1.789       .  S
O937        C938   1.256       .  A
C943        O944   1.256       .  A
O945        C960   1.264   1_565  A
O945       Al953   1.930       .  S
C946        O956   1.264   1_455  A
O947       Al949   1.874       .  S
O948        C950   1.264       .  A
O948       Al949   1.930       .  S
Al949       O957   1.931       .  S
Al949       O959   1.874       .  S
Al949       O958   1.789       .  S
O951        C961   1.264       .  A
O952        C965   1.264       .  A
Al953       O963   1.874       .  S
O954        C961   1.256       .  A
O955       Al962   1.874       .  S
O956       Al962   1.930       .  S
O957        C964   1.264       .  A
C965        O966   1.256       .  A
C967       C1007   1.467       .  S
N968        C969   1.359       .  A
C971        C987   1.467       .  S
C971        N972   1.358   1_655  A
C973       C1053   1.467       .  S
C973        N974   1.358       .  A
C973        N978   1.359       .  A
N974        C975   1.358       .  A
C975        C995   1.467       .  S
C975        N976   1.359       .  A
N976        C977   1.359       .  A
C977       C1057   1.467       .  S
C977        N978   1.358       .  A
C979       C1011   1.467       .  S
C979        N980   1.358       .  A
C979        N984   1.359       .  A
N980        C981   1.358       .  A
C981       C1001   1.467       .  S
C981        N982   1.359       .  A
N982        C983   1.358       .  A
C983       C1019   1.467       .  S
C983        N984   1.359       .  A
C985       C1080   1.463       .  S
C985        N986   1.359       .  A
C985        N990   1.361       .  A
N986        C987   1.354       .  A
N988        C989   1.359       .  A
C989       C1037   1.463       .  S
C991       C1099   1.463       .  S
C991        N992   1.361       .  A
C991        N996   1.359       .  A
N992        C993   1.361       .  A
C993       C1062   1.463       .  S
C993        N994   1.359       .  A
N994        C995   1.354       .  A
C995        N996   1.354       .  A
C997       C1041   1.463       .  S
C997        N998   1.361       .  A
C997       N1002   1.359       .  A
N998        C999   1.361       .  A
C999       C1103   1.463       .  S
C999       N1000   1.359       .  A
N1000      C1001   1.354       .  A
C1001      N1002   1.354       .  A
C1003      C1076   1.463       .  S
C1003      N1008   1.359       .  A
C1005      C1022   1.463       .  S
C1005      N1006   1.359       .  A
C1009      C1102   1.463       .  S
C1009      N1014   1.361       .  A
N1010      C1011   1.354       .  A
C1011      N1012   1.354       .  A
C1013      C1036   1.463       .  S
C1013      N1014   1.361       .  A
C1015      N1020   1.359       .  A
N1016      C1017   1.361       .  A
C1017      C1040   1.463       .  S
N1018      C1019   1.354       .  A
C1019      N1020   1.354       .  A
O1021      C1036   1.264       .  A
O1021     Al1029   1.931       .  S
C1022      O1032   1.264       .  A
C1022      O1023   1.256       .  A
O1023     Al1025   1.874       .  S
O1024      C1026   1.264       .  A
O1024     Al1025   1.930       .  S
Al1025     O1033   1.930       .  S
Al1025     O1035   1.874       .  S
Al1025     O1034   1.789       .  S
C1026      C1045   1.463       .  S
C1026      O1039   1.256       .  A
O1027      C1037   1.264       .  A
O1027     Al1029   1.931       .  S
O1028      C1041   1.264       .  A
O1028     Al1038   1.931       .  S
Al1029     O1042   1.874       .  S
Al1029     O1039   1.874       .  S
Al1029     O1034   1.789       .  S
O1030      C1037   1.256       .  A
O1030     Al1038   1.874       .  S
O1031      C1040   1.256       .  A
O1031     Al1038   1.874       .  S
O1032     Al1038   1.930       .  S
O1033      C1040   1.264       .  A
O1034     Al1038   1.789       .  S
O1035      C1036   1.256       .  A
C1041      O1042   1.256       .  A
C1043      C1081   1.463       .  S
C1043      N1044   1.361   1_655  A
C1043      N1048   1.359       .  A
C1045      N1046   1.359       .  A
C1047      N1048   1.354   1_455  A
C1049      C1088   1.463       .  S
C1049      N1050   1.361       .  A
N1050      C1051   1.361       .  A
C1051      C1066   1.463       .  S
N1052      C1053   1.354       .  A
C1053      N1054   1.354       .  A
C1055      C1077   1.463       .  S
C1055      N1060   1.361       .  A
N1056      C1057   1.354       .  A
C1057      N1058   1.354       .  A
N1058      C1059   1.359       .  A
O1061      C1076   1.264       .  A
O1061     Al1069   1.931       .  S
C1062      O1072   1.264       .  A
C1062      O1063   1.256       .  A
O1063     Al1065   1.874       .  S
O1064      C1066   1.264       .  A
O1064     Al1065   1.930       .  S
Al1065     O1073   1.931       .  S
Al1065     O1075   1.874       .  S
Al1065     O1074   1.789       .  S
C1066      O1079   1.256       .  A
O1067      C1077   1.264       .  A
O1067     Al1069   1.931       .  S
O1068      C1081   1.264       .  A
O1068     Al1078   1.930       .  S
Al1069     O1082   1.874       .  S
Al1069     O1079   1.874       .  S
Al1069     O1074   1.789       .  S
O1070      C1077   1.256       .  A
O1070     Al1078   1.874       .  S
O1071      C1080   1.256       .  A
O1071     Al1078   1.874       .  S
O1072     Al1078   1.931       .  S
O1073      C1080   1.264       .  A
O1074     Al1078   1.789       .  S
O1075      C1076   1.256       .  A
C1081      O1082   1.256       .  A
O1083      C1098   1.264   1_565  A
O1083     Al1091   1.930       .  S
C1084      O1094   1.264   1_455  A
O1085     Al1087   1.874       .  S
O1086      C1088   1.264       .  A
O1086     Al1087   1.930       .  S
Al1087     O1095   1.931       .  S
Al1087     O1097   1.874       .  S
Al1087     O1096   1.789       .  S
O1089      C1099   1.264       .  A
O1090      C1103   1.264       .  A
Al1091     O1101   1.874       .  S
O1092      C1099   1.256       .  A
O1093     Al1100   1.874       .  S
O1094     Al1100   1.930       .  S
O1095      C1102   1.264       .  A
C1103      O1104   1.256       .  A
