geometry optimzed in LAMMPS
_audit_creation_date              2020-12-01 
_audit_creation_method            'lammps2cif' 
_symmetry_space_group_name_H-M    'P1' 
_symmetry_Int_Tables_number       1 
_symmetry_cell_setting            triclinic 
loop_ 
_symmetry_equiv_pos_as_xyz 
  x,y,z 
_cell_length_a                    37.56144433 
_cell_length_b                    37.66734889503494 
_cell_length_c                    65.35773034939417 
_cell_angle_alpha                 89.48324056512314 
_cell_angle_beta                  89.581737350221 
_cell_angle_gamma                 89.91455540725924 
loop_ 
_atom_site_label 
_atom_site_type_symbol 
_atom_site_fract_x 
_atom_site_fract_y 
_atom_site_fract_z 
_atom_site_charge 
C1          C  0.25237710  0.49810830  0.25044391    -0.02300
N2          N  0.05428574  0.24415982  0.00295644    -0.36400
N3          N  0.49524437  0.25516344  0.03177732    -0.56900
N4          N  0.44054881  0.25405759  0.00054446    -0.36400
N5          N  0.49557586  0.26130752  0.97036740    -0.56900
C6          C  0.07066636  0.25320347  0.02047878     0.27200
C7          C  0.07360153  0.25781113  0.98726652     0.27200
C8          C  0.42190817  0.24187468  0.01686033     0.27200
C9          C  0.42210895  0.24559484  0.98359068     0.27200
C10         C  0.02506393  0.22908115  0.04440223     0.35800
C11         C  0.46561017  0.25851999  0.04339371     0.35800
C12         C  0.03313852  0.23956488  0.95944561     0.35800
C13         C  0.46684638  0.26689553  0.95847882     0.35800
C14         C  0.10143145  0.27206527  0.01588744    -0.21700
C15         C  0.10325691  0.27503739  0.99484265    -0.21700
C16         C  0.39070305  0.22611413  0.01027640    -0.21700
C17         C  0.39082123  0.22850256  0.98919292    -0.21700
C18         C  0.01394545  0.21527688  0.06311594    -0.22700
C19         C  0.47440792  0.26997964  0.06282478    -0.22700
C20         C  0.02655098  0.22867172  0.93960364    -0.22700
C21         C  0.47712014  0.28113568  0.93972783    -0.22700
C22         C  0.05911511  0.24335025  0.04034127    -0.18100
C23         C  0.06584439  0.25320921  0.96635037    -0.18100
C24         C  0.43239877  0.25455766  0.96337841    -0.18100
C25         C  0.43151662  0.24691601  0.03747814    -0.18100
H26         H  0.12055972  0.28251565  0.02657010     0.14800
H27         H  0.12408764  0.28817114  0.98611934     0.14800
H28         H  0.36991254  0.21440845  0.01968587     0.14800
H29         H  0.37021058  0.21893273  0.97916023     0.14800
H30         H  0.02984644  0.21093763  0.07665713     0.13100
H31         H  0.45660263  0.27406859  0.07568730     0.13100
H32         H  0.04541109  0.22668922  0.92706279     0.13100
H33         H  0.46031711  0.28722982  0.92677433     0.13100
H34         H  0.03324216  0.22645487  0.00167576     0.26400
H35         H  0.46261789  0.27063419  0.00114082     0.26400
C36         C  0.24819815  0.00381871  0.75028429    -0.02300
C37         C  0.99824160  0.25571509  0.74901992    -0.02300
N38         N  0.25262951  0.44640115  0.99986182    -0.36400
N39         N  0.24804199  0.00617747  0.97052707    -0.56900
N40         N  0.24210807  0.05753930  0.00391500    -0.36400
N41         N  0.25003702  0.99975209  0.03346413    -0.56900
C42         C  0.26153562  0.42815779  0.98283143     0.27200
C43         C  0.26349781  0.42707667  0.01618490     0.27200
C44         C  0.23328834  0.07865621  0.98790776     0.27200
C45         C  0.23294884  0.07486031  0.02122098     0.27200
C46         C  0.24050755  0.47233628  0.95685012     0.35800
C47         C  0.24619554  0.03639550  0.95930713     0.35800
C48         C  0.24842280  0.47036373  0.04378093     0.35800
C49         C  0.24796630  0.02713212  0.04666838     0.35800
C50         C  0.27802696  0.39659425  0.98842474    -0.21700
C51         C  0.27914915  0.39585938  0.00950806    -0.21700
C52         C  0.21926335  0.11029180  0.99509950    -0.21700
C53         C  0.21879868  0.10780583  0.01610548    -0.21700
C54         C  0.23009018  0.48183697  0.93723923    -0.22700
C55         C  0.25063325  0.02874888  0.93870542    -0.22700
C56         C  0.24221349  0.47889466  0.06409605    -0.22700
C57         C  0.25452371  0.01518256  0.06640033    -0.22700
C58         C  0.25340056  0.43833836  0.96247950    -0.18100
C59         C  0.25805855  0.43607907  0.03694249    -0.18100
C60         C  0.23782305  0.06234813  0.04153926    -0.18100
C61         C  0.23795930  0.07054347  0.96696519    -0.18100
H62         H  0.28790803  0.37607803  0.97836662     0.14800
H63         H  0.29016190  0.37474538  0.01886866     0.14800
H64         H  0.20989524  0.13268285  0.98613301     0.14800
H65         H  0.20904149  0.12799111  0.02641971     0.14800
H66         H  0.22860170  0.46508589  0.92390682     0.13100
H67         H  0.25025384  0.04701462  0.92583743     0.13100
H68         H  0.24280292  0.46145083  0.07733061     0.13100
H69         H  0.25484153  0.03045197  0.08033559     0.13100
H70         H  0.23629756  0.46853272  0.00046297     0.26400
H71         H  0.25684172  0.03421459  0.00303624     0.26400
C72         C  0.34604905  0.25364590  0.89092004     0.42700
N73         N  0.31838511  0.23689422  0.86405693     0.01600
C74         C  0.21346498  0.34904509  0.80443169    -0.06300
H75         H  0.18804114  0.34886461  0.88232217     0.07100
C76         C  0.15557383  0.22506089  0.88230089    -0.06700
Co77       Co  0.29072982  0.29871604  0.83980426     0.74200
N78         N  0.22726401  0.32624118  0.86233324    -0.25800
Co79       Co  0.19852859  0.29779176  0.84093097     0.74100
C80         C  0.14737207  0.25780015  0.89316577     0.42800
N81         N  0.22829937  0.18115630  0.86650873     0.01200
N82         N  0.17248647  0.27059155  0.86447465     0.01300
N83         N  0.27346273  0.34984889  0.80387562    -0.46700
H84         H  0.34169484  0.31248548  0.88120036     0.07100
N85         N  0.26233436  0.32617894  0.86229652     0.01600
N86         N  0.17045011  0.26738597  0.81979293     0.01300
C87         C  0.13113083  0.25157634  0.79786740     0.42900
N88         N  0.26336445  0.18119793  0.86604891    -0.25300
C89         C  0.34210421  0.27909101  0.80378126    -0.06200
N90         N  0.33472709  0.22491136  0.88064298    -0.46400
N91         N  0.14681760  0.27980376  0.80663227    -0.46600
C92         C  0.35902889  0.24635220  0.79639547     0.42700
N93         N  0.26120287  0.32589871  0.81721729     0.01600
N94         N  0.26342448  0.17646204  0.82169664    -0.25300
N95         N  0.31866300  0.27180023  0.86263749    -0.25800
N96         N  0.22822794  0.17511797  0.82200820     0.01200
H97         H  0.30362903  0.14371665  0.80753932     0.07100
H98         H  0.13955895  0.19235628  0.80574453     0.07100
N99         N  0.22606845  0.32504827  0.81781043    -0.25900
N100        N  0.17206116  0.23560907  0.86504544    -0.25500
N101        N  0.31925566  0.23363577  0.81935017     0.01600
C102        C  0.24766623  0.35254370  0.89019445     0.43000
C103        C  0.27531071  0.16548723  0.88312841    -0.06700
N104        N  0.17101814  0.23230945  0.82054744    -0.25500
H105        H  0.15138024  0.19783968  0.88702945     0.07100
N106        N  0.27562424  0.34183232  0.87863788    -0.46700
H107        H  0.30294141  0.16061790  0.88643297     0.07100
C108        C  0.24438300  0.13287476  0.80211977     0.42800
C109        C  0.33643713  0.28475046  0.87862858    -0.06200
Co110      Co  0.29161316  0.20657837  0.84265734     0.73800
N111        N  0.21524054  0.16672003  0.88349010    -0.46400
C112        C  0.24489534  0.36522155  0.79474666     0.43100
N113        N  0.34328194  0.21950308  0.80690542    -0.46400
Co114      Co  0.19927462  0.20547796  0.84334128     0.73900
C115        C  0.14705708  0.21991247  0.80726889    -0.06700
C116        C  0.21558563  0.34336916  0.87895012    -0.06300
N117        N  0.31831035  0.26864225  0.81799959    -0.25800
N118        N  0.15772670  0.28493291  0.88092990    -0.46600
H119        H  0.18594407  0.35727665  0.80360301     0.07100
C120        C  0.27594023  0.15104568  0.80935131    -0.06700
Cl121      Cl  0.24503421  0.25212073  0.84138436    -0.49700
C122        C  0.24331352  0.15706334  0.89505659     0.42800
H123        H  0.34937927  0.30638589  0.80065900     0.07000
N124        N  0.21569487  0.14903762  0.81055792    -0.46400
C125        C  0.25167746  0.36260800  0.20443245     0.42700
N126        N  0.26618237  0.32415741  0.18160689     0.01600
C127        C  0.15208515  0.21815226  0.12631098    -0.06300
H128        H  0.14179065  0.19824951  0.20357599     0.07100
C129        C  0.27713380  0.15206149  0.19835412    -0.06700
Co130      Co  0.20111903  0.29583259  0.16094041     0.74200
N131        N  0.17361131  0.23482691  0.18582790    -0.25800
Co132      Co  0.19970083  0.20389565  0.16393067     0.74100
C133        C  0.24553422  0.13668287  0.20802989     0.42800
N134        N  0.32239348  0.23122258  0.18188523     0.01200
N135        N  0.22955042  0.17628977  0.18597056     0.01300
N136        N  0.15556723  0.27787839  0.12335495    -0.46700
H137        H  0.19208481  0.35611862  0.19747814     0.07100
N138        N  0.17363626  0.26984273  0.18441464     0.01600
N139        N  0.22626299  0.17517719  0.14140686     0.01300
C140        C  0.23863942  0.14630467  0.11421880     0.42900
N141        N  0.32336843  0.26630438  0.18123523    -0.25300
C142        C  0.21617113  0.33912672  0.12164445    -0.06200
N143        N  0.27967561  0.34720569  0.19470889    -0.46400
N144        N  0.21154283  0.15842630  0.12588085    -0.46600
C145        C  0.24752549  0.34916719  0.10954516     0.42700
N146        N  0.17269985  0.26605800  0.13974839     0.01600
N147        N  0.31836324  0.26443700  0.13688506    -0.25300
N148        N  0.23099323  0.32435375  0.18178646    -0.25800
N149        N  0.31736953  0.22943285  0.13720326     0.01200
H150        H  0.33934422  0.30260931  0.11536750     0.07100
H151        H  0.29887407  0.15114504  0.11951475     0.07100
N152        N  0.17147846  0.23120525  0.14156346    -0.25900
N153        N  0.26472550  0.17620611  0.18497744    -0.25500
N154        N  0.26386851  0.32078629  0.13673875     0.01600
C155        C  0.13603764  0.25855567  0.20843174     0.43000
C156        C  0.34993542  0.27714990  0.19339266    -0.06700
N157        N  0.26134233  0.17446280  0.14064351    -0.25500
H158        H  0.30448192  0.14320655  0.19930053     0.07100
N159        N  0.15123311  0.28501714  0.19744031    -0.46700
H160        H  0.35968975  0.30407399  0.19440265     0.07100
C161        C  0.34179125  0.24286348  0.10839955     0.42800
C162        C  0.21950739  0.34807932  0.19539715    -0.06200
Co163      Co  0.29363298  0.29457673  0.15929912     0.73800
N164        N  0.34690665  0.21732413  0.19402635    -0.46400
C165        C  0.14263183  0.24893468  0.11382703     0.43100
N166        N  0.27612545  0.33740222  0.12018210    -0.46400
Co167      Co  0.29195673  0.20239162  0.16128664     0.73900
C168        C  0.27167385  0.15577122  0.12432233    -0.06700
C169        C  0.15033010  0.22516323  0.20045479    -0.06300
N170        N  0.22888150  0.32105098  0.13767450    -0.25800
N171        N  0.21704365  0.15244235  0.19923495    -0.46600
H172        H  0.14593351  0.19046184  0.12422279     0.07100
C173        C  0.33415578  0.27532075  0.11954782    -0.06700
Cl174      Cl  0.24664628  0.24917911  0.16161460    -0.49700
C175        C  0.36503855  0.24452790  0.20219091     0.42800
H176        H  0.18839577  0.34486603  0.11957898     0.07000
N177        N  0.33156938  0.21536699  0.12048607    -0.46400
C178        C  0.50298123  0.38186918  0.70480876     0.42700
N179        N  0.48820057  0.42296189  0.68328678     0.01600
C180        C  0.09144278  0.03778994  0.61824779    -0.06300
H181        H  0.10631361  0.06875704  0.69304367     0.07100
C182        C  0.46639101  0.09180930  0.69752960    -0.06700
Co183      Co  0.04868207  0.46216091  0.65987863     0.74200
N184        N  0.07526619  0.02790610  0.67860797    -0.25800
Co185      Co  0.04421213  0.05407069  0.65653498     0.74100
C186        C  0.49841356  0.10950010  0.70524882     0.42800
N187        N  0.42689551  0.00839108  0.68397339     0.01200
N188        N  0.01548968  0.08187110  0.67898205     0.01300
N189        N  0.09365398  0.47801103  0.62129555    -0.46700
H190        H  0.06141361  0.40454508  0.69961529     0.07100
N191        N  0.07505396  0.49377300  0.68089404     0.01600
N192        N  0.01186644  0.07793260  0.63422733     0.01300
C193        C  0.48874016  0.09926933  0.61074404     0.42900
N194        N  0.42828992  0.47654065  0.68416486    -0.25300
C195        C  0.03476797  0.41031636  0.62421241    -0.06200
N196        N  0.47533776  0.39840816  0.69583975    -0.46400
N197        N  0.02194617  0.09377063  0.61693223    -0.46600
C198        C  0.50402039  0.39554357  0.61133408     0.42700
N199        N  0.07376263  0.49089194  0.63632453     0.01600
N200        N  0.42880972  0.47616512  0.63971852    -0.25300
N201        N  0.02171602  0.43433714  0.68315011    -0.25800
N202        N  0.42356800  0.01026262  0.63962162     0.01200
H203        H  0.40716697  0.43508315  0.62089606     0.07100
H204        H  0.43079033  0.08707551  0.61987389     0.07100
N205        N  0.07209117  0.02586549  0.63417997    -0.25900
N206        N  0.47815681  0.06901259  0.68329816    -0.25500
N207        N  0.48748594  0.42388184  0.63845545     0.01600
C208        C  0.11721773  0.00980174  0.70012154     0.43000
C209        C  0.40411005  0.46457330  0.69790040    -0.06700
N210        N  0.47402815  0.06970179  0.63890141    -0.25500
H211        H  0.43872545  0.09787111  0.70057198     0.07100
N212        N  0.09927611  0.48252867  0.69406113    -0.46700
H213        H  0.39696161  0.43701469  0.70018027     0.07100
C214        C  0.39210917  0.99422129  0.61413447     0.42800
C215        C  0.03376162  0.41155243  0.69742042    -0.06200
Co216      Co  0.45780139  0.44937303  0.66153543     0.73800
N217        N  0.40371381  0.02042766  0.69748382    -0.46400
C218        C  0.10585079  0.00592504  0.60842394     0.43100
N219        N  0.47535399  0.40626068  0.62243304    -0.46400
Co220      Co  0.45020744  0.03971499  0.66159407     0.73900
C221        C  0.45898740  0.08622778  0.62300653    -0.06700
C222        C  0.09951176  0.04102636  0.69150179    -0.06300
N223        N  0.02179801  0.43147976  0.63879296    -0.25800
N224        N  0.02837376  0.10701828  0.69089821    -0.46600
H225        H  0.09599566  0.06545140  0.61463332     0.07100
C226        C  0.41048462  0.46293210  0.62415979    -0.06700
Cl227      Cl  0.49975210  0.99744406  0.65959523    -0.49700
C228        C  0.38870175  0.99236900  0.70698539     0.42800
H229        H  0.06267657  0.40564340  0.62122127     0.07000
N230        N  0.40321171  0.02269759  0.62474433    -0.46400
C231        C  0.11860089  0.99843340  0.29971817     0.42700
N232        N  0.07745622  0.01486165  0.32055921     0.01600
C233        C  0.47107603  0.39716815  0.37559762    -0.06300
H234        H  0.44601074  0.38847346  0.30105451     0.07100
C235        C  0.40653045  0.02906390  0.30554162    -0.06700
Co236      Co  0.04749165  0.45691019  0.34273165     0.74200
N237        N  0.48534802  0.42066566  0.31547401    -0.25800
Co238      Co  0.45611240  0.44643884  0.33818233     0.74100
C239        C  0.39163032  0.99884120  0.29460213     0.42800
N240        N  0.48668542  0.07049306  0.32109075     0.01200
N241        N  0.42878382  0.47859720  0.31690902     0.01300
N242        N  0.02861708  0.41453405  0.38202645    -0.46700
H243        H  0.10650664  0.44370243  0.30402403     0.07100
N244        N  0.01892161  0.42843242  0.32096755     0.01600
N245        N  0.42890113  0.47195639  0.36168897     0.01300
C246        C  0.40708524  0.98454881  0.39187494     0.42900
N247        N  0.02276010  0.07501282  0.31974945    -0.25300
C248        C  0.09279319  0.47315092  0.38080519    -0.06200
N249        N  0.10356965  0.02699731  0.30866536    -0.46400
N250        N  0.41313701  0.45617522  0.37751806    -0.46600
C251        C  0.10409405  0.99554772  0.39120471     0.42700
N252        N  0.01705742  0.43184266  0.36559600     0.01600
N253        N  0.02063836  0.07274235  0.36430370    -0.25300
N254        N  0.07682077  0.48396678  0.32010443    -0.25800
N255        N  0.48562198  0.06363612  0.36565077     0.01200
H256        H  0.05963642  0.09612174  0.38410702     0.07100
H257        H  0.41152749  0.04487544  0.38681818     0.07100
N258        N  0.48376730  0.41633560  0.35984170    -0.25900
N259        N  0.42949414  0.01500082  0.31897133    -0.25500
N260        N  0.07379913  0.01348662  0.36508846     0.01600
C261        C  0.50544397  0.37755134  0.29526709     0.43000
C262        C  0.03546112  0.10035338  0.30701014    -0.06700
N263        N  0.42967838  0.00878519  0.36351414    -0.25500
H264        H  0.39866468  0.05665645  0.30508696     0.07100
N265        N  0.03158388  0.40237502  0.30942108    -0.46700
H266        H  0.06307038  0.10816430  0.30561315     0.07100
C267        C  0.49955924  0.09122107  0.39305069     0.42800
C268        C  0.09961285  0.47134708  0.30602998    -0.06200
Co269      Co  0.04923842  0.04451852  0.34232366     0.73800
N270        N  0.47406591  0.09535119  0.30857229    -0.46400
C271        C  0.50229564  0.38699103  0.38776637     0.43100
N272        N  0.09317672  0.02466844  0.38063373    -0.46400
Co273      Co  0.45724536  0.03996857  0.34220976     0.73900
C274        C  0.41457714  0.01808205  0.38133627    -0.06700
C275        C  0.47358505  0.39626848  0.30244365    -0.06300
N276        N  0.07476183  0.48537754  0.36465662    -0.25800
N277        N  0.40562366  0.46829499  0.30293169    -0.46600
H278        H  0.44322618  0.39198744  0.37777772     0.07100
C279        C  0.03211728  0.09190412  0.38011257    -0.06700
Cl280      Cl  0.50273917  0.99291021  0.34041193    -0.49700
C281        C  0.50255038  0.11121125  0.29965441     0.42800
H282        H  0.09594408  0.44536984  0.38461673     0.07000
N283        N  0.47198250  0.08034168  0.38162008    -0.46400
N284        N  0.00150473  0.19888115  0.49862962    -0.36400
N285        N  0.01493210  0.25512401  0.47035205    -0.56900
N286        N  0.01757773  0.30706902  0.50311563    -0.36400
N287        N  0.00421327  0.24993891  0.53139491    -0.56900
C288        C  0.99171029  0.18354057  0.48099148     0.27200
C289        C  0.98566910  0.18068100  0.51400446     0.27200
C290        C  0.01072063  0.32801114  0.48672203     0.27200
C291        C  0.00711963  0.32490902  0.52001076     0.27200
C292        C  0.01938108  0.22728856  0.45768712     0.35800
C293        C  0.02611762  0.28416934  0.45999256     0.35800
C294        C  0.00594648  0.21910642  0.54192894     0.35800
C295        C  0.01417247  0.27550469  0.54446209     0.35800
C296        C  0.96913267  0.15521930  0.48515524    -0.21700
C297        C  0.96557614  0.15320689  0.50616446    -0.21700
C298        C  0.99624050  0.35990066  0.49328503    -0.21700
C299        C  0.99409249  0.35797167  0.51438643    -0.21700
C300        C  0.03430237  0.23853898  0.43930212    -0.22700
C301        C  0.03832885  0.27468861  0.44070729    -0.22700
C302        C  0.01776098  0.22497247  0.56168319    -0.22700
C303        C  0.02281331  0.26087636  0.56331335    -0.22700
C304        C  0.00524307  0.19316682  0.46158739    -0.18100
C305        C  0.99179506  0.18695572  0.53482595    -0.18100
C306        C  0.01052121  0.31200073  0.54026057    -0.18100
C307        C  0.01869350  0.31921946  0.46618635    -0.18100
H308        H  0.95737199  0.13733291  0.47424328     0.14800
H309        H  0.95042756  0.13356329  0.51469780     0.14800
H310        H  0.98833188  0.38229562  0.48386794     0.14800
H311        H  0.98410386  0.37845692  0.52442677     0.14800
H312        H  0.03987336  0.22269818  0.42591655     0.13100
H313        H  0.04745986  0.29225195  0.42857057     0.13100
H314        H  0.02074069  0.20565709  0.57391631     0.13100
H315        H  0.03061551  0.27476607  0.57699272     0.13100
H316        H  0.02156695  0.21768277  0.50028913     0.26400
H317        H  0.03155993  0.28316012  0.50290646     0.26400
N318        N  0.20401578  0.50547471  0.50007006    -0.36400
N319        N  0.25841193  0.50250047  0.53100946    -0.56900
N320        N  0.31376739  0.49342289  0.50054181    -0.36400
N321        N  0.25908909  0.49458149  0.46959548    -0.56900
C322        C  0.18339431  0.50031826  0.51685705     0.27200
C323        C  0.18383578  0.49896336  0.48352894     0.27200
C324        C  0.33149195  0.48499776  0.51780194     0.27200
C325        C  0.33136244  0.47833848  0.48475220     0.27200
C326        C  0.23007502  0.51179831  0.54259665     0.35800
C327        C  0.28747989  0.50918516  0.54233844     0.35800
C328        C  0.23195991  0.50497165  0.45749732     0.35800
C329        C  0.28885248  0.49628942  0.45792621     0.35800
C330        C  0.14928302  0.49114321  0.51093526    -0.21700
C331        C  0.14945150  0.49069197  0.48981514    -0.21700
C332        C  0.36104198  0.46452534  0.51299640    -0.21700
C333        C  0.36100893  0.46037139  0.49201178    -0.21700
C334        C  0.24112818  0.52442427  0.56135504    -0.22700
C335        C  0.27751815  0.52328897  0.56107874    -0.22700
C336        C  0.24459421  0.51344554  0.43806135    -0.22700
C337        C  0.28071492  0.50824505  0.43838894    -0.22700
C338        C  0.19428650  0.50621032  0.53717220    -0.18100
C339        C  0.19564656  0.50231907  0.46303153    -0.18100
C340        C  0.32223690  0.48276863  0.46397527    -0.18100
C341        C  0.32206930  0.49703062  0.53747326    -0.18100
H342        H  0.12651294  0.48608672  0.52077448     0.14800
H343        H  0.12682359  0.48510482  0.48021177     0.14800
H344        H  0.38068472  0.45403167  0.52347834     0.14800
H345        H  0.38065225  0.44607046  0.48310679     0.14800
H346        H  0.22468911  0.53307686  0.57403754     0.13100
H347        H  0.29462246  0.53043571  0.57364218     0.13100
H348        H  0.22932263  0.52141568  0.42481715     0.13100
H349        H  0.29869784  0.51142681  0.42548882     0.13100
H350        H  0.22930266  0.51660859  0.49975005     0.26400
H351        H  0.29308633  0.51174950  0.49942255     0.26400
C352        C  0.99774244  0.25404668  0.25113432    -0.02300
C353        C  0.47584732  0.33677281  0.27192687    -0.05600
C354        C  0.50504043  0.34271811  0.28442529     0.00400
C355        C  0.02735813  0.32443747  0.29124997    -0.08200
C356        C  0.02223315  0.29299870  0.27990507    -0.05600
C357        C  0.99310526  0.28735917  0.26633237     0.00400
C358        C  0.46824053  0.30359418  0.26324025    -0.08100
C359        C  0.42929958  0.29881207  0.25760755     0.62300
H360        H  0.45753244  0.35864023  0.26970009     0.13000
H361        H  0.04196316  0.27227639  0.28131186     0.13000
C362        C  0.05897510  0.32727558  0.30547971     0.62500
F363        F  0.40811173  0.32700451  0.26376109    -0.22700
F364        F  0.41566249  0.26954706  0.26774111    -0.20000
F365        F  0.42545550  0.29680926  0.23679508    -0.19700
F366        F  0.04721168  0.33468178  0.32509113    -0.19700
F367        F  0.08146117  0.35399871  0.29868267    -0.20000
F368        F  0.07849101  0.29609303  0.30634087    -0.22700
C369        C  0.50870996  0.14178297  0.26629812    -0.05600
C370        C  0.50127819  0.14429812  0.28710596     0.00400
C371        C  0.99318995  0.18486242  0.29692591    -0.08200
C372        C  0.99156940  0.21607283  0.28480555    -0.05600
C373        C  0.99849456  0.21664731  0.26333117     0.00400
C374        C  0.50739203  0.17132353  0.25274895    -0.08100
C375        C  0.51221178  0.16239017  0.22998474     0.62300
H376        H  0.51500925  0.11552437  0.26071721     0.13000
H377        H  0.98339436  0.24002844  0.29236816     0.13000
C378        C  0.98522208  0.18619925  0.31972264     0.62500
F379        F  0.51471123  0.12617250  0.22676053    -0.22700
F380        F  0.54309165  0.17659992  0.22211003    -0.20000
F381        F  0.48349038  0.17360650  0.21869842    -0.19700
F382        F  0.01312335  0.17132261  0.33054118    -0.19700
F383        F  0.95443168  0.16737685  0.32398728    -0.20000
F384        F  0.98047423  0.22061486  0.32647043    -0.22700
C385        C  0.02018531  0.11737413  0.42447935    -0.05600
C386        C  0.49670837  0.11143634  0.41242328     0.00400
C387        C  0.46864848  0.13590343  0.41639764    -0.08200
C388        C  0.46911810  0.15506212  0.43474166    -0.05600
C389        C  0.00150363  0.16818447  0.44426846     0.00400
C390        C  0.02335954  0.13777818  0.44222497    -0.08100
C391        C  0.05119480  0.12789870  0.45808525     0.62300
H392        H  0.03609288  0.09380709  0.42272455     0.13000
H393        H  0.44836561  0.17420662  0.43805607     0.13000
C394        C  0.44005049  0.14450092  0.40075218     0.62500
F395        F  0.03523507  0.12096001  0.47678032    -0.22700
F396        F  0.07503246  0.15555041  0.46013104    -0.20000
F397        F  0.07017303  0.09787265  0.45262107    -0.19700
F398        F  0.41822636  0.11551385  0.39794620    -0.19700
F399        F  0.45588507  0.15400792  0.38233066    -0.20000
F400        F  0.41869661  0.17253135  0.40685107    -0.22700
C401        C  0.48160937  0.34411795  0.44037985    -0.05600
C402        C  0.01230249  0.34558573  0.44958371     0.00400
C403        C  0.03839030  0.36989092  0.44282430    -0.08200
C404        C  0.03219174  0.38950877  0.42472666    -0.05600
C405        C  0.50500525  0.37022376  0.40870532     0.00400
C406        C  0.47561604  0.36350075  0.42224575    -0.08100
C407        C  0.43802163  0.37653103  0.41845828     0.62300
H408        H  0.45937588  0.33597719  0.44997565     0.13000
H409        H  0.05231689  0.40785499  0.41919450     0.13000
C410        C  0.07319737  0.37365408  0.45417045     0.62500
F411        F  0.41684619  0.37379638  0.43584427    -0.22700
F412        F  0.42236345  0.35630835  0.40346686    -0.20000
F413        F  0.43866969  0.41200638  0.41296580    -0.19700
F414        F  0.09196513  0.34207124  0.45332811    -0.19700
F415        F  0.06671200  0.38202413  0.47440449    -0.20000
F416        F  0.09406313  0.40023319  0.44573533    -0.22700
C417        C  0.15913358  0.53505500  0.43797644    -0.05600
C418        C  0.16933782  0.50226470  0.44623826     0.00400
C419        C  0.16239627  0.95807615  0.43378244    -0.08200
C420        C  0.14011249  0.96154193  0.41666248    -0.05600
C421        C  0.12730954  0.99482133  0.40980853     0.00400
C422        C  0.13938086  0.53759450  0.41980688    -0.08100
C423        C  0.13212244  0.57420590  0.41092868     0.62300
H424        H  0.16847466  0.55878281  0.44547145     0.13000
H425        H  0.13342437  0.93797749  0.40826460     0.13000
C426        C  0.17716153  0.92193700  0.43986115     0.62500
F427        F  0.14695673  0.60093787  0.42250397    -0.22700
F428        F  0.08898726  0.06408321  0.41408137    -0.20000
F429        F  0.14640211  0.57685766  0.39141072    -0.19700
F430        F  0.16475480  0.89523809  0.42736588    -0.19700
F431        F  0.15724408  0.42807027  0.46378456    -0.20000
F432        F  0.21389861  0.92226568  0.43844869    -0.22700
C433        C  0.36279867  0.45030629  0.41441687    -0.05600
C434        C  0.39472833  0.97878791  0.41322205     0.00400
C435        C  0.40163537  0.00308836  0.42917288    -0.08200
C436        C  0.37934771  0.00256421  0.44645835    -0.05600
C437        C  0.34887823  0.47509931  0.44766439     0.00400
C438        C  0.34320577  0.44853064  0.43283430    -0.08100
C439        C  0.31686949  0.41857390  0.43657965     0.62300
H440        H  0.35643315  0.43259462  0.40200280     0.13000
H441        H  0.38144528  0.02346203  0.45769282     0.13000
C442        C  0.43270261  0.02870821  0.42920919     0.62500
F443        F  0.32010356  0.39243776  0.42192639    -0.22700
F444        F  0.28236179  0.43115478  0.43616850    -0.20000
F445        F  0.32321687  0.40316354  0.45550353    -0.19700
F446        F  0.42039679  0.06280623  0.42591105    -0.19700
F447        F  0.45823285  0.02041883  0.41467657    -0.20000
F448        F  0.44921225  0.02734201  0.44806963    -0.22700
C449        C  0.13036830  0.53536967  0.57886651    -0.05600
C450        C  0.12681750  0.00407742  0.58885372     0.00400
C451        C  0.14644563  0.97362193  0.58251691    -0.08200
C452        C  0.16578069  0.97531462  0.56398244    -0.05600
C453        C  0.16774442  0.50552243  0.55409929     0.00400
C454        C  0.15034658  0.53665118  0.56061483    -0.08100
C455        C  0.15322608  0.57107640  0.54836044     0.62300
H456        H  0.11706475  0.55909256  0.58382910     0.13000
H457        H  0.18182024  0.95297669  0.55910233     0.13000
C458        C  0.14840118  0.93981073  0.59528469     0.62500
F459        F  0.12647045  0.09641338  0.55333315    -0.22700
F460        F  0.13097725  0.06166211  0.52574779    -0.20000
F461        F  0.13817411  0.59939365  0.55863120    -0.19700
F462        F  0.11525846  0.92406899  0.59618292    -0.19700
F463        F  0.15901161  0.44755165  0.61701873    -0.20000
F464        F  0.17107879  0.41487504  0.58948804    -0.22700
C465        C  0.38337439  0.02457654  0.58099404    -0.05600
C466        C  0.37446815  0.99613805  0.59413797     0.00400
C467        C  0.35003588  0.46942327  0.58976005    -0.08200
C468        C  0.33725197  0.46750872  0.56977039    -0.05600
C469        C  0.34693229  0.49268576  0.55483984     0.00400
C470        C  0.36741469  0.02856459  0.56174155    -0.08100
C471        C  0.37547230  0.06083420  0.54846325     0.62300
H472        H  0.40260030  0.04396992  0.58604644     0.13000
H473        H  0.31607319  0.44892893  0.56640931     0.13000
C474        C  0.33063576  0.44718355  0.60586360     0.62500
F475        F  0.40997416  0.56877007  0.55081253    -0.22700
F476        F  0.35447578  0.56680053  0.53853460    -0.20000
F477        F  0.38923936  0.05016121  0.52983535    -0.19700
F478        F  0.33839170  0.45670209  0.62569421    -0.19700
F479        F  0.35630693  0.91183875  0.60068618    -0.20000
F480        F  0.30063341  0.93177211  0.59635437    -0.22700
C481        C  0.45446242  0.13514454  0.58591420    -0.05600
C482        C  0.48626203  0.11691100  0.59043901     0.00400
C483        C  0.01362546  0.11253099  0.57048341    -0.08200
C484        C  0.01156402  0.13294661  0.55250192    -0.05600
C485        C  0.98506838  0.15863245  0.55004044     0.00400
C486        C  0.45028185  0.15427331  0.56757543    -0.08100
C487        C  0.41517034  0.17241565  0.56271104     0.62300
H488        H  0.43307524  0.13524757  0.59707507     0.13000
H489        H  0.03238762  0.13114464  0.54098336     0.13000
C490        C  0.04391184  0.08655132  0.57281782     0.62500
F491        F  0.39015243  0.16714864  0.57810186    -0.22700
F492        F  0.40170015  0.15863260  0.54482889    -0.20000
F493        F  0.41995151  0.20855844  0.56020090    -0.19700
F494        F  0.03220470  0.05519529  0.58175231    -0.19700
F495        F  0.06957785  0.10203833  0.58483334    -0.20000
F496        F  0.05877133  0.07811111  0.55403961    -0.22700
C497        C  0.03267344  0.37787936  0.58200316    -0.05600
C498        C  0.50397392  0.37624428  0.59128549     0.00400
C499        C  0.47273401  0.36907529  0.57975909    -0.08200
C500        C  0.47588803  0.34917139  0.56165799    -0.05600
C501        C  0.00748268  0.33640168  0.55800284     0.00400
C502        C  0.03589363  0.35854886  0.56381107    -0.08100
C503        C  0.07000105  0.36085060  0.55123576     0.62300
H504        H  0.05371836  0.39594878  0.58605791     0.13000
H505        H  0.45238131  0.34190303  0.55317027     0.13000
C506        C  0.43611184  0.38199316  0.58621699     0.62500
F507        F  0.09607383  0.38003110  0.56110654    -0.22700
F508        F  0.06322191  0.37735286  0.53271372    -0.20000
F509        F  0.08334363  0.32717102  0.54774901    -0.19700
F510        F  0.43648795  0.41856218  0.58767722    -0.19700
F511        F  0.42662473  0.36681434  0.60481169    -0.20000
F512        F  0.41016116  0.37311647  0.57222747    -0.22700
C513        C  0.07960883  0.28948685  0.21823522    -0.05600
C514        C  0.10465983  0.26264709  0.22211203     0.00400
C515        C  0.09873993  0.23964125  0.23879734    -0.08200
C516        C  0.06486964  0.23880019  0.24778613    -0.05600
C517        C  0.03602126  0.26079516  0.24131619     0.00400
C518        C  0.04639648  0.29086289  0.22872899    -0.08100
C519        C  0.02612735  0.32591950  0.22750757     0.62300
H520        H  0.08643576  0.30963786  0.20697236     0.13000
H521        H  0.06187648  0.22036808  0.26038150     0.13000
C522        C  0.12737060  0.21576178  0.24787789     0.62500
F523        F  0.03700345  0.34628851  0.21086204    -0.22700
F524        F  0.03292693  0.34525144  0.24487154    -0.20000
F525        F  0.99006786  0.32126729  0.22572045    -0.19700
F526        F  0.16138277  0.22684321  0.24271751    -0.19700
F527        F  0.12242072  0.18139047  0.24123498    -0.20000
F528        F  0.12505564  0.21601188  0.26902319    -0.22700
C529        C  0.43091868  0.25207241  0.20240535    -0.05600
C530        C  0.40004326  0.24008474  0.21231981     0.00400
C531        C  0.40336971  0.22210937  0.23115300    -0.08200
C532        C  0.43652542  0.22249436  0.24104065    -0.05600
C533        C  0.46794052  0.23820183  0.23251415     0.00400
C534        C  0.46523061  0.24680262  0.21083759    -0.08100
C535        C  0.49425976  0.24479001  0.19441813     0.62300
H536        H  0.42841862  0.26252422  0.18695519     0.13000
H537        H  0.43698013  0.21187671  0.25638452     0.13000
C538        C  0.37152401  0.20426196  0.24136369     0.62500
F539        F  0.48173504  0.22565683  0.17794914    -0.22700
F540        F  0.52433723  0.22734197  0.20058214    -0.20000
F541        F  0.50284054  0.27836676  0.18730423    -0.19700
F542        F  0.35923681  0.17732325  0.22905584    -0.19700
F543        F  0.34463148  0.22882869  0.24436029    -0.20000
F544        F  0.37999603  0.18943367  0.26017497    -0.22700
C545        C  0.25714405  0.11570859  0.06019349    -0.05600
C546        C  0.23261095  0.08785581  0.05862514     0.00400
C547        C  0.20605688  0.08351074  0.07403253    -0.08200
C548        C  0.20840626  0.10395394  0.09181831    -0.05600
C549        C  0.23448209  0.13020900  0.09390182     0.00400
C550        C  0.25705068  0.13848243  0.07703833    -0.08100
C551        C  0.28028324  0.17138721  0.07553467     0.62300
H552        H  0.27641690  0.11991409  0.04797415     0.13000
H553        H  0.19003846  0.09883668  0.10438210     0.13000
C554        C  0.17541473  0.05741183  0.07282069     0.62500
F555        F  0.27587494  0.18726193  0.05653707    -0.22700
F556        F  0.31560854  0.16179789  0.07766290    -0.20000
F557        F  0.27159797  0.19661567  0.08995035    -0.19700
F558        F  0.17947864  0.03135928  0.08767588    -0.19700
F559        F  0.17288243  0.04138385  0.05395549    -0.20000
F560        F  0.14375870  0.07519894  0.07641638    -0.22700
C561        C  0.22882451  0.38813324  0.05613365    -0.05600
C562        C  0.26001653  0.40760212  0.05276565     0.00400
C563        C  0.28790910  0.40546763  0.06712663    -0.08200
C564        C  0.28231347  0.38597859  0.08525388    -0.05600
C565        C  0.25013811  0.36812831  0.08943736     0.00400
C566        C  0.22303055  0.36839625  0.07422097    -0.08100
C567        C  0.18729714  0.34996351  0.07680729     0.62300
H568        H  0.20772534  0.39082754  0.04500281     0.13000
H569        H  0.30331821  0.38551455  0.09654669     0.13000
C570        C  0.32328217  0.42441956  0.06454863     0.62500
F571        F  0.16916950  0.34795468  0.05847689    -0.22700
F572        F  0.16616443  0.36909359  0.09015847    -0.20000
F573        F  0.19188103  0.31557590  0.08388380    -0.19700
F574        F  0.32610300  0.45035740  0.07929155    -0.19700
F575        F  0.32743695  0.44012756  0.04549074    -0.20000
F576        F  0.35069493  0.40024674  0.06710998    -0.22700
C577        C  0.26380520  0.12196472  0.94851895    -0.05600
C578        C  0.23452889  0.09959012  0.95164107     0.00400
C579        C  0.20517943  0.10166922  0.93832201    -0.08200
C580        C  0.20908675  0.12111371  0.92004246    -0.05600
C581        C  0.24003827  0.14087230  0.91574882     0.00400
C582        C  0.26623816  0.14421206  0.93121286    -0.08100
C583        C  0.29646781  0.17088535  0.93016956     0.62300
H584        H  0.28540900  0.12110041  0.95942234     0.13000
H585        H  0.18824347  0.12002508  0.90870248     0.13000
C586        C  0.17049058  0.08262405  0.94314975     0.62500
F587        F  0.30740054  0.17992045  0.94963232    -0.22700
F588        F  0.28575639  0.20190429  0.92051152    -0.20000
F589        F  0.32526064  0.15637702  0.91996065    -0.19700
F590        F  0.16022067  0.08940099  0.96310511    -0.19700
F591        F  0.17457470  0.04644877  0.94076977    -0.20000
F592        F  0.14337843  0.09405344  0.93044314    -0.22700
C593        C  0.28020152  0.39255663  0.91319384    -0.05600
C594        C  0.25088677  0.37001968  0.91040707     0.00400
C595        C  0.22627620  0.36500379  0.92686197    -0.08200
C596        C  0.22908118  0.38680109  0.94412020    -0.05600
C597        C  0.25658987  0.41153702  0.94596097     0.00400
C598        C  0.28384399  0.41304488  0.93093304    -0.08100
C599        C  0.31633778  0.43642786  0.93356570     0.62300
H600        H  0.29973412  0.39502869  0.90099663     0.13000
H601        H  0.20896167  0.38552670  0.95607662     0.13000
C602        C  0.19738718  0.33684978  0.92687027     0.62500
F603        F  0.34174380  0.43025525  0.91855520    -0.22700
F604        F  0.33165702  0.42945683  0.95235442    -0.20000
F605        F  0.30682962  0.47183023  0.93254136    -0.19700
F606        F  0.20998994  0.30580783  0.91827389    -0.19700
F607        F  0.16822260  0.34911907  0.91618748    -0.20000
F608        F  0.18617188  0.32869931  0.94659918    -0.22700
C609        C  0.02900561  0.19869003  0.73480050    -0.05600
C610        C  0.49888605  0.21125899  0.73689558     0.00400
C611        C  0.47199137  0.20265741  0.72187703    -0.08200
C612        C  0.47238720  0.16856060  0.71299165    -0.05600
C613        C  0.50008238  0.14428134  0.71597774     0.00400
C614        C  0.03034533  0.16599776  0.72462628    -0.08100
C615        C  0.06178649  0.14120562  0.72827259     0.62300
H616        H  0.05190167  0.20506993  0.74372821     0.13000
H617        H  0.45159905  0.16103856  0.70254795     0.13000
C618        C  0.44387011  0.22858194  0.71360292     0.62500
F619        F  0.08408518  0.15336057  0.74347070    -0.22700
F620        F  0.08179224  0.13825250  0.71053495    -0.20000
F621        F  0.04962782  0.10803738  0.73426983    -0.19700
F622        F  0.42331645  0.24306515  0.72888586    -0.19700
F623        F  0.42034782  0.21229509  0.70044277    -0.20000
F624        F  0.46029986  0.25528324  0.70246178    -0.22700
C625        C  0.46858989  0.30286609  0.73656179    -0.05600
C626        C  0.49749920  0.27850220  0.73608243     0.00400
C627        C  0.02468675  0.29930917  0.71958767    -0.08200
C628        C  0.02550274  0.33432964  0.71170511    -0.05600
C629        C  0.49960126  0.34640676  0.71525768     0.00400
C630        C  0.46903486  0.33625380  0.72670538    -0.08100
C631        C  0.43672190  0.36048543  0.72894781     0.62300
H632        H  0.44483943  0.29620374  0.74490833     0.13000
H633        H  0.04627693  0.34221525  0.70109417     0.13000
C634        C  0.05200528  0.27347199  0.71045206     0.62500
F635        F  0.41199884  0.34727600  0.74286650    -0.22700
F636        F  0.41979682  0.36394501  0.71031476    -0.20000
F637        F  0.44719245  0.39352000  0.73572725    -0.19700
F638        F  0.07289865  0.25790616  0.72520355    -0.19700
F639        F  0.07517180  0.29017266  0.69688491    -0.20000
F640        F  0.03485636  0.24761113  0.69944905    -0.22700
C641        C  0.05717946  0.28287520  0.76248365    -0.05600
C642        C  0.03157186  0.25522135  0.76385330     0.00400
C643        C  0.03848419  0.22763262  0.77899787    -0.08200
C644        C  0.07152471  0.22753316  0.78926171    -0.05600
C645        C  0.09740229  0.25369384  0.78606652     0.00400
C646        C  0.09015037  0.28182777  0.77237440    -0.08100
C647        C  0.11748469  0.31049737  0.76761591     0.62300
H648        H  0.05199962  0.30619800  0.75349517     0.13000
H649        H  0.07708258  0.20734450  0.80065934     0.13000
C650        C  0.01160956  0.19929199  0.78606989     0.62500
F651        F  0.10792177  0.33132500  0.75096394    -0.22700
F652        F  0.14997330  0.29500169  0.76305447    -0.20000
F653        F  0.12088263  0.33244343  0.78430435    -0.19700
F654        F  0.99648900  0.18157528  0.77003137    -0.19700
F655        F  0.98520096  0.21481636  0.79776728    -0.20000
F656        F  0.02732513  0.17340580  0.79818888    -0.22700
C657        C  0.43961106  0.21449916  0.76532029    -0.05600
C658        C  0.46312705  0.24418754  0.76578504     0.00400
C659        C  0.45353550  0.27168960  0.78016915    -0.08200
C660        C  0.41880685  0.27172848  0.78868307    -0.05600
C661        C  0.39486782  0.24361305  0.78632421     0.00400
C662        C  0.40635110  0.21341275  0.77541850    -0.08100
C663        C  0.38379660  0.17990709  0.77425258     0.62300
H664        H  0.44709240  0.19111958  0.75709686     0.13000
H665        H  0.41060986  0.29327669  0.79843800     0.13000
C666        C  0.47918363  0.29976488  0.78834745     0.62500
F667        F  0.39870595  0.15468674  0.76148083    -0.22700
F668        F  0.35034686  0.18809312  0.76685209    -0.20000
F669        F  0.38065499  0.16465183  0.79350458    -0.19700
F670        F  0.49501096  0.31942066  0.77299537    -0.19700
F671        F  0.50505126  0.28346896  0.80002827    -0.20000
F672        F  0.46215681  0.32389965  0.80095340    -0.22700
C673        C  0.32938925  0.96781462  0.71680293    -0.05600
C674        C  0.35391939  0.99540525  0.71814184     0.00400
C675        C  0.34279316  0.52874497  0.72957149    -0.08200
C676        C  0.30861629  0.53027131  0.73852617    -0.05600
C677        C  0.28366688  0.00085217  0.73659289     0.00400
C678        C  0.29437589  0.96987436  0.72485248    -0.08100
C679        C  0.27245266  0.93668777  0.72034486     0.62300
H680        H  0.33750734  0.94419215  0.70866733     0.13000
H681        H  0.30374432  0.55297741  0.74786954     0.13000
C682        C  0.36948570  0.55809154  0.73407322     0.62500
F683        F  0.28274071  0.90959614  0.73343927    -0.22700
F684        F  0.27879397  0.92582005  0.70044020    -0.20000
F685        F  0.23487017  0.44313918  0.72327239    -0.19700
F686        F  0.37354309  0.07628929  0.71454486    -0.19700
F687        F  0.40160725  0.54342842  0.74006238    -0.20000
F688        F  0.35800514  0.58007875  0.74967359    -0.22700
C689        C  0.21146051  0.50813947  0.71619524    -0.05600
C690        C  0.21264196  0.00670126  0.73727614     0.00400
C691        C  0.17720113  0.01107958  0.74617852    -0.08200
C692        C  0.14746601  0.01231862  0.73312845    -0.05600
C693        C  0.15042812  0.00905609  0.71206126     0.00400
C694        C  0.18056504  0.50955928  0.70410232    -0.08100
C695        C  0.18336505  0.50973542  0.68090128     0.62300
H696        H  0.23665495  0.50645394  0.70832184     0.13000
H697        H  0.12091736  0.01628444  0.73928764     0.13000
C698        C  0.16855727  0.01700937  0.76888328     0.62500
F699        F  0.21831518  0.50773667  0.67416799    -0.22700
F700        F  0.16875086  0.54080263  0.67322774    -0.20000
F701        F  0.16514637  0.48109435  0.67306662    -0.19700
F702        F  0.17533074  0.05187199  0.77386603    -0.19700
F703        F  0.18714374  0.99461250  0.78163907    -0.20000
F704        F  0.13292683  0.01090622  0.77326134    -0.22700
C705        C  0.24764648  0.03633469  0.78542563    -0.05600
C706        C  0.24716998  0.03903379  0.76365953     0.00400
C707        C  0.24332263  0.07479391  0.75521462    -0.08200
C708        C  0.24232397  0.10396794  0.76864559    -0.05600
C709        C  0.24383301  0.10011362  0.78977340     0.00400
C710        C  0.24627974  0.06591180  0.79846038    -0.08100
C711        C  0.24635439  0.06064569  0.82153903     0.62300
H712        H  0.24829577  0.01065070  0.79267573     0.13000
H713        H  0.23936811  0.13076615  0.76274152     0.13000
C714        C  0.23680288  0.08438261  0.73267241     0.62500
F715        F  0.25041906  0.02530166  0.82708282    -0.22700
F716        F  0.21445945  0.07263581  0.82963001    -0.20000
F717        F  0.27404315  0.07945901  0.83004980    -0.19700
F718        F  0.20131684  0.07937295  0.72815571    -0.19700
F719        F  0.25761206  0.06523842  0.71936804    -0.20000
F720        F  0.24445783  0.11972408  0.72857401    -0.22700
C721        C  0.21799365  0.44555797  0.76223891    -0.05600
C722        C  0.24703625  0.46976500  0.76390234     0.00400
C723        C  0.27675921  0.45669462  0.77596869    -0.08200
C724        C  0.27482260  0.42238024  0.78517363    -0.05600
C725        C  0.24584592  0.39948002  0.78280938     0.00400
C726        C  0.21806878  0.41060017  0.76985698    -0.08100
C727        C  0.18893215  0.38607822  0.76227012     0.62300
H728        H  0.19506880  0.45210470  0.75327075     0.13000
H729        H  0.29684338  0.41277071  0.79428808     0.13000
C730        C  0.31284336  0.47484955  0.77846696     0.62500
F731        F  0.18185080  0.39306126  0.74184954    -0.22700
F732        F  0.15816913  0.39184963  0.77347408    -0.20000
F733        F  0.19857157  0.35073078  0.76351382    -0.19700
F734        F  0.31131873  0.51118011  0.77796119    -0.19700
F735        F  0.33576631  0.46326952  0.76329462    -0.20000
F736        F  0.32767983  0.46606349  0.79718834    -0.22700
C737        C  0.10092101  0.27680328  0.08934907    -0.05600
C738        C  0.12514817  0.24927414  0.09355294     0.00400
C739        C  0.13108727  0.22259383  0.07861670    -0.08200
C740        C  0.10910976  0.22188575  0.06136252    -0.05600
C741        C  0.08353237  0.24814894  0.05784712     0.00400
C742        C  0.08023276  0.27697916  0.07146822    -0.08100
C743        C  0.05530959  0.30781202  0.06692485     0.62300
H744        H  0.09763173  0.29774005  0.10045742     0.13000
H745        H  0.11160729  0.20043217  0.05049312     0.13000
C746        C  0.16042357  0.19492032  0.08007971     0.62500
F747        F  0.02052493  0.29611014  0.06586420    -0.22700
F748        F  0.06478010  0.32332038  0.04841904    -0.20000
F749        F  0.05688979  0.33360085  0.08184289    -0.19700
F750        F  0.14768851  0.16512937  0.09020870    -0.19700
F751        F  0.18985809  0.20807044  0.09006111    -0.20000
F752        F  0.17175841  0.18486569  0.06076812    -0.22700
C753        C  0.37723903  0.26629881  0.05569152    -0.05600
C754        C  0.40439200  0.24111788  0.05374049     0.00400
C755        C  0.40633252  0.21229168  0.06773643    -0.08200
C756        C  0.38389979  0.21255966  0.08506569    -0.05600
C757        C  0.35891262  0.23981970  0.08804109     0.00400
C758        C  0.35313431  0.26504335  0.07213235    -0.08100
C759        C  0.32186563  0.29055784  0.07179104     0.62300
H760        H  0.37512408  0.28729719  0.04430163     0.13000
H761        H  0.38689019  0.19236886  0.09683380     0.13000
C762        C  0.43187118  0.18158234  0.06430503     0.62500
F763        F  0.31087304  0.29654690  0.05187021    -0.22700
F764        F  0.33199087  0.32259832  0.08000026    -0.20000
F765        F  0.29299651  0.27704601  0.08255899    -0.19700
F766        F  0.46665619  0.19263731  0.06655629    -0.19700
F767        F  0.42752817  0.16852816  0.04476513    -0.20000
F768        F  0.42573444  0.15405934  0.07805059    -0.22700
C769        C  0.12096012  0.23712821  0.94802069    -0.05600
C770        C  0.09332924  0.26153436  0.95064597     0.00400
C771        C  0.08918879  0.28980248  0.93644362    -0.08200
C772        C  0.10908785  0.28902456  0.91814502    -0.05600
C773        C  0.13381869  0.26183018  0.91436091     0.00400
C774        C  0.14254842  0.23785477  0.93045478    -0.08100
C775        C  0.17303636  0.21165436  0.92951064     0.62300
H776        H  0.12469406  0.21638184  0.95942420     0.13000
H777        H  0.10368504  0.30836698  0.90618972     0.12200
C778        C  0.06214388  0.31913398  0.93985414     0.62500
F779        F  0.18874502  0.20828881  0.94853117    -0.22700
F780        F  0.19934107  0.22240205  0.91592227    -0.20000
F781        F  0.15980349  0.17902503  0.92391509    -0.19700
F782        F  0.02855069  0.30746244  0.93470511    -0.19700
F783        F  0.07017110  0.34877324  0.92802835    -0.20000
F784        F  0.06201633  0.32930274  0.96014637    -0.22700
C785        C  0.38084992  0.27719699  0.94376725    -0.05600
C786        C  0.40652459  0.25065051  0.94644462     0.00400
C787        C  0.40872993  0.22238485  0.93236704    -0.08200
C788        C  0.38762366  0.22388752  0.91468743    -0.05600
C789        C  0.36393594  0.25212576  0.91108569     0.00400
C790        C  0.35841628  0.27773360  0.92664767    -0.08100
C791        C  0.32903501  0.30540100  0.92587294     0.62300
H792        H  0.37886114  0.29801556  0.95506350     0.13000
H793        H  0.39040548  0.20353189  0.90318494     0.13000
C794        C  0.43323755  0.19089319  0.93606056     0.62500
F795        F  0.31884392  0.31531276  0.94541454    -0.22700
F796        F  0.29907402  0.29224795  0.91638360    -0.20000
F797        F  0.34114088  0.33524686  0.91557227    -0.19700
F798        F  0.42626090  0.17630822  0.95516577    -0.19700
F799        F  0.46840119  0.20153378  0.93513327    -0.20000
F800        F  0.42842002  0.16462039  0.92166765    -0.22700
C801        C  0.33521157  0.96967568  0.28501784    -0.05600
C802        C  0.35814437  0.99856447  0.28234867     0.00400
C803        C  0.34726737  0.52622761  0.26934998    -0.08200
C804        C  0.31371977  0.52522856  0.25993305    -0.05600
C805        C  0.28979852  0.99601250  0.26224426     0.00400
C806        C  0.30176677  0.96711650  0.27532373    -0.08100
C807        C  0.28217452  0.93193404  0.27877441     0.62300
H808        H  0.34408265  0.94844550  0.29500473     0.13000
H809        H  0.30828864  0.54657698  0.24948066     0.13000
C810        C  0.37266242  0.55622719  0.26352421     0.62500
F811        F  0.28697569  0.41058398  0.26263614    -0.22700
F812        F  0.24444149  0.43755300  0.28163571    -0.20000
F813        F  0.29513308  0.91334462  0.29552846    -0.19700
F814        F  0.40723498  0.54382147  0.26186264    -0.19700
F815        F  0.36353505  0.08518925  0.27583197    -0.20000
F816        F  0.36677576  0.06829634  0.24303197    -0.22700
C817        C  0.18133898  0.50477603  0.29647188    -0.05600
C818        C  0.15250473  0.99917461  0.28804045     0.00400
C819        C  0.15273686  0.99844116  0.26666545    -0.08200
C820        C  0.18548409  0.99979307  0.25629085    -0.05600
C821        C  0.21922437  0.99974942  0.26613167     0.00400
C822        C  0.21544970  0.50659098  0.28706670    -0.08100
C823        C  0.24544706  0.51620134  0.30187957     0.62300
H824        H  0.17872514  0.50541508  0.31299273     0.13000
H825        H  0.18477526  0.99955442  0.23992486     0.13000
C826        C  0.11814555  0.99597121  0.25488281     0.62500
F827        F  0.23558487  0.03764136  0.31794704    -0.22700
F828        F  0.27436199  0.03664695  0.29297147    -0.20000
F829        F  0.26201670  0.48603513  0.30916512    -0.19700
F830        F  0.09709659  0.02518897  0.25913811    -0.19700
F831        F  0.09542869  0.47854401  0.25604804    -0.20000
F832        F  0.12492982  0.50587252  0.23049686    -0.22700
C833        C  0.24037043  0.07092681  0.20673335    -0.05600
C834        C  0.24432731  0.10155497  0.21837522     0.00400
C835        C  0.24661074  0.09848741  0.23966398    -0.08200
C836        C  0.24724271  0.06448949  0.24856839    -0.05600
C837        C  0.24709452  0.03231882  0.23722898     0.00400
C838        C  0.23880363  0.03638152  0.21558100    -0.08100
C839        C  0.22668530  0.00773908  0.20058647     0.62300
H840        H  0.23757097  0.07443094  0.19033719     0.13000
H841        H  0.24926473  0.06296969  0.26488924     0.13000
C842        C  0.24881800  0.13134157  0.25289234     0.62500
F843        F  0.20405140  0.02231573  0.18609417    -0.22700
F844        F  0.20748297  0.98071225  0.20952518    -0.20000
F845        F  0.25560141  0.99402028  0.19017547    -0.19700
F846        F  0.21880256  0.15205130  0.24996748    -0.19700
F847        F  0.27869311  0.15082165  0.24750041    -0.20000
F848        F  0.25100385  0.12292482  0.27350940    -0.22700
C849        C  0.22654265  0.43647132  0.24100498    -0.05600
C850        C  0.25352681  0.46251664  0.23769997     0.00400
C851        C  0.28243764  0.45230309  0.22409111    -0.08200
C852        C  0.28070981  0.41927310  0.21393453    -0.05600
C853        C  0.25337025  0.39479370  0.21742267     0.00400
C854        C  0.22722390  0.40257627  0.23231005    -0.08100
C855        C  0.20078171  0.37548611  0.24081170     0.62300
H856        H  0.20540154  0.44065178  0.25187085     0.13000
H857        H  0.30136824  0.41189293  0.20314838     0.13000
C858        C  0.31668491  0.47352218  0.22039083     0.62500
F859        F  0.19913901  0.37793647  0.26192629    -0.22700
F860        F  0.21019592  0.34086108  0.23649773    -0.20000
F861        F  0.16736805  0.38252325  0.23300956    -0.19700
F862        F  0.34020423  0.46708322  0.23613600    -0.19700
F863        F  0.31042745  0.50938696  0.21852437    -0.20000
F864        F  0.33364986  0.46356544  0.20244395    -0.22700
C865        C  0.25260699  0.99708448  0.25079396    -0.02300
N866        N  0.04901261  0.76811921  0.00068208    -0.36400
N867        N  0.49919758  0.74265209  0.03241093    -0.56900
N868        N  0.44551393  0.73064564  0.00104644    -0.36400
N869        N  0.49971856  0.74316870  0.96973021    -0.56900
C870        C  0.06916175  0.77281543  0.01752198     0.27200
C871        C  0.06941611  0.77632072  0.98415200     0.27200
C872        C  0.42416633  0.73217324  0.01777335     0.27200
C873        C  0.42444056  0.73333733  0.98437776     0.27200
C874        C  0.02279178  0.76028804  0.04449997     0.35800
C875        C  0.47141849  0.73374886  0.04469762     0.35800
C876        C  0.02373240  0.76823796  0.95677243     0.35800
C877        C  0.47212544  0.73499631  0.95748292     0.35800
C878        C  0.10302107  0.78359934  0.01159525    -0.21700
C879        C  0.10316860  0.78584109  0.99056674    -0.21700
C880        C  0.38890855  0.73412975  0.01160785    -0.21700
C881        C  0.38911410  0.73505839  0.99058437    -0.21700
C882        C  0.01214011  0.75622794  0.06475272    -0.22700
C883        C  0.48284763  0.73020914  0.06475675    -0.22700
C884        C  0.01377905  0.76526030  0.93646810    -0.22700
C885        C  0.48401242  0.73096469  0.93750125    -0.22700
C886        C  0.05825886  0.76710337  0.03810329    -0.18100
C887        C  0.05904881  0.77417847  0.96337523    -0.18100
C888        C  0.43599973  0.73338423  0.96369113    -0.18100
C889        C  0.43543723  0.73114937  0.03844753    -0.18100
H890        H  0.12532838  0.78937543  0.02141020     0.14800
H891        H  0.12562290  0.79359409  0.98106957     0.14800
H892        H  0.36531421  0.73483651  0.02119081     0.14800
H893        H  0.36579816  0.73661669  0.98098443     0.14800
H894        H  0.02857961  0.75641436  0.07827633     0.13100
H895        H  0.46707897  0.72440233  0.07827289     0.13100
H896        H  0.03066415  0.76615415  0.92299272     0.13100
H897        H  0.46839826  0.72552506  0.92405042     0.13100
H898        H  0.02409762  0.75654276  0.00039379     0.26400
H899        H  0.47256571  0.72539581  0.00103577     0.26400
C900        C  0.24659124  0.50581349  0.75048935    -0.02300
C901        C  0.00019190  0.75482851  0.74898817    -0.02300
N902        N  0.26003430  0.94910727  0.00003269    -0.36400
N903        N  0.23966892  0.50100086  0.96913061    -0.56900
N904        N  0.22820835  0.55356935  0.00118244    -0.36400
N905        N  0.24551564  0.49973206  0.03186435    -0.56900
C906        C  0.25980470  0.92970987  0.98272351     0.27200
C907        C  0.26185590  0.92632974  0.01606953     0.27200
C908        C  0.22791129  0.57518291  0.98455054     0.27200
C909        C  0.23006046  0.57441915  0.01788408     0.27200
C910        C  0.25365692  0.97946821  0.95717593     0.35800
C911        C  0.22902849  0.52866842  0.95737700     0.35800
C912        C  0.25777292  0.97048634  0.04470660     0.35800
C913        C  0.23699557  0.52670921  0.04452635     0.35800
C914        C  0.26258489  0.89397549  0.98784466    -0.21700
C915        C  0.26390692  0.89185145  0.00883680    -0.21700
C916        C  0.22798756  0.61027910  0.99081144    -0.21700
C917        C  0.22917324  0.60980313  0.01180539    -0.21700
C918        C  0.25428410  0.99274937  0.93733603    -0.22700
C919        C  0.22355322  0.51754302  0.93747339    -0.22700
C920        C  0.25988222  0.97936556  0.06523625    -0.22700
C921        C  0.23562289  0.51452652  0.06460269    -0.22700
C922        C  0.25789746  0.94311470  0.96239165    -0.18100
C923        C  0.26206044  0.93554473  0.03705686    -0.18100
C924        C  0.23166813  0.56253160  0.03848926    -0.18100
C925        C  0.22677416  0.56433765  0.96386357    -0.18100
H926        H  0.26378385  0.87165236  0.97755312     0.14800
H927        H  0.26624472  0.86759307  0.01772824     0.14800
H928        H  0.22702326  0.63389993  0.98127906     0.14800
H929        H  0.22933435  0.63302550  0.02142587     0.14800
H930        H  0.25751695  0.97815885  0.92325870     0.13100
H931        H  0.21601667  0.53336142  0.92432291     0.13100
H932        H  0.26506362  0.96202517  0.07815450     0.13100
H933        H  0.23041692  0.52952260  0.07832641     0.13100
H934        H  0.26055569  0.97655916  0.00090063     0.26400
H935        H  0.22472246  0.52635438  0.00119946     0.26400
C936        C  0.34803708  0.75167925  0.89205801     0.42700
N937        N  0.32058806  0.73697801  0.86452655     0.01600
C938        C  0.21858292  0.84949552  0.80402956    -0.06300
H939        H  0.19060055  0.85137503  0.88177557     0.07100
C940        C  0.15695977  0.72705295  0.88096989    -0.06700
Co941      Co  0.29462353  0.80011226  0.84087046     0.74200
N942        N  0.23042437  0.82787486  0.86264965    -0.25800
Co943      Co  0.20204202  0.80017398  0.84072994     0.74100
C944        C  0.14824021  0.75967451  0.89202235     0.42800
N945        N  0.22988234  0.68259107  0.86518203     0.01200
N946        N  0.17509111  0.77275904  0.86375697     0.01300
N947        N  0.27865176  0.85001698  0.80400342    -0.46700
H948        H  0.34434405  0.81120867  0.88282621     0.07100
N949        N  0.26545753  0.82718440  0.86321764     0.01600
N950        N  0.17400209  0.77084828  0.81887778     0.01300
C951        C  0.13574873  0.75538439  0.79607627     0.42900
N952        N  0.26490492  0.68187983  0.86486951    -0.25300
C953        C  0.34852084  0.78226695  0.80589108    -0.06200
N954        N  0.33627185  0.72391361  0.88103202    -0.46400
N955        N  0.15085216  0.78349996  0.80542261    -0.46600
C956        C  0.36532949  0.74994594  0.79800581     0.42700
N957        N  0.26589602  0.82759057  0.81802989     0.01600
N958        N  0.26633159  0.67950312  0.82050642    -0.25300
N959        N  0.32135681  0.77189135  0.86375021    -0.25800
N960        N  0.23110500  0.67860570  0.82066554     0.01200
H961        H  0.30615105  0.64640018  0.80628366     0.07100
H962        H  0.14469181  0.69608804  0.80345326     0.07100
N963        N  0.23074822  0.82694804  0.81823982    -0.25900
N964        N  0.17436336  0.73782486  0.86403815    -0.25500
N965        N  0.32384322  0.73597235  0.81974752     0.01600
C966        C  0.24988302  0.85444829  0.89073796     0.43000
C967        C  0.27618516  0.66426469  0.88145389    -0.06700
N968        N  0.17470158  0.73581509  0.81928781    -0.25500
H969        H  0.15162713  0.69972676  0.88485157     0.07100
N970        N  0.27818204  0.84290341  0.87969863    -0.46700
H971        H  0.30372521  0.65865898  0.88441093     0.07100
C972        C  0.24681129  0.63694725  0.80032089     0.42800
C973        C  0.33898976  0.78364168  0.88010144    -0.06200
Co974      Co  0.29440552  0.70808513  0.84224008     0.73800
N975        N  0.21623854  0.66688723  0.88163339    -0.46400
C976        C  0.25027854  0.86428108  0.79410794     0.43100
N977        N  0.34869868  0.72245428  0.80754365    -0.46400
Co978      Co  0.20191112  0.70819639  0.84214195     0.73900
C979        C  0.15173247  0.72367544  0.80540187    -0.06700
C980        C  0.21824889  0.84563307  0.87891418    -0.06300
N981        N  0.32340534  0.77105078  0.81916221    -0.25800
N982        N  0.15962258  0.78682241  0.88004985    -0.46600
H983        H  0.19102559  0.85728599  0.80237553     0.07100
C984        C  0.27859567  0.65431917  0.80791810    -0.06700
Cl985      Cl  0.24829290  0.75412194  0.84121836    -0.49700
C986        C  0.24381085  0.65526790  0.89305964     0.42800
H987        H  0.35642315  0.80962991  0.80363145     0.07000
N988        N  0.21832822  0.65319776  0.80885836    -0.46400
C989        C  0.24867079  0.86234738  0.20365379     0.42700
N990        N  0.26392726  0.82335859  0.18127904     0.01600
C991        C  0.15467507  0.72125193  0.12105474    -0.06300
H992        H  0.13663915  0.69662423  0.19752841     0.07100
C993        C  0.27281145  0.65180425  0.19692535    -0.06700
Co994      Co  0.20043604  0.79595379  0.15911496     0.74200
N995        N  0.17074547  0.73376680  0.18212738    -0.25800
Co996      Co  0.19791091  0.70364031  0.16032325     0.74100
C997        C  0.24088737  0.63645525  0.20613207     0.42800
N998        N  0.31808975  0.72963407  0.18220695     0.01200
N999        N  0.22586162  0.67456438  0.18287835     0.01300
N1000       N  0.15869932  0.78098106  0.12023126    -0.46700
H1001       H  0.18936757  0.85593883  0.19588638     0.07100
N1002       N  0.17142078  0.76883785  0.18162783     0.01600
N1003       N  0.22599857  0.67612779  0.13793601     0.01300
C1004       C  0.24042746  0.64964316  0.11010955     0.42900
N1005       N  0.31890511  0.76468948  0.18206421    -0.25300
C1006       C  0.21910811  0.83860195  0.11974394    -0.06200
N1007       N  0.27693627  0.84658834  0.19442109    -0.46400
N1008       N  0.21258291  0.66111280  0.12146140    -0.46600
C1009       C  0.25152515  0.84616008  0.10802645     0.42700
N1010       N  0.17364795  0.76755495  0.13685538     0.01600
N1011       N  0.31931829  0.76403459  0.13759802    -0.25300
N1012       N  0.22878803  0.82362980  0.18097203    -0.25800
N1013       N  0.31749036  0.72913178  0.13742437     0.01200
H1014       H  0.34368250  0.80232339  0.11751385     0.07100
H1015       H  0.30004575  0.65164182  0.11838730     0.07100
N1016       N  0.17203048  0.73264308  0.13759281    -0.25900
N1017       N  0.26101485  0.67488236  0.18281580    -0.25500
N1018       N  0.26518841  0.82039308  0.13638116     0.01600
C1019       C  0.13299072  0.75621767  0.20503316     0.43000
C1020       C  0.34240272  0.77536795  0.19604538    -0.06700
N1021       N  0.26102547  0.67496735  0.13820904    -0.25500
H1022       H  0.30027473  0.64390389  0.19891944     0.07100
N1023       N  0.14890735  0.78329404  0.19487176    -0.46700
H1024       H  0.35153342  0.80234062  0.19798398     0.07100
C1025       C  0.34502932  0.74274099  0.10953291     0.42800
C1026       C  0.21678040  0.84754850  0.19437995    -0.06200
Co1027     Co  0.29254184  0.79375760  0.15950461     0.73800
N1028       N  0.34013911  0.71549279  0.19570693    -0.46400
C1029       C  0.14685813  0.75337841  0.10915890     0.43100
N1030       N  0.27906238  0.83492350  0.11961439    -0.46400
Co1031     Co  0.28995384  0.70161520  0.16026309     0.73900
C1032       C  0.27256659  0.65766339  0.12163619    -0.06700
C1033       C  0.14678901  0.72334762  0.19616344    -0.06300
N1034       N  0.23016462  0.82164805  0.13659779    -0.25800
N1035       N  0.21274164  0.65114302  0.19626362    -0.46600
H1036       H  0.14836422  0.69390698  0.11810580     0.07100
C1037       C  0.33732941  0.77503584  0.12098205    -0.06700
Cl1038     Cl  0.24520133  0.74873201  0.16004113    -0.49700
C1039       C  0.35597258  0.74266452  0.20533842     0.42800
H1040       H  0.19171918  0.84462317  0.11646150     0.07000
N1041       N  0.33276481  0.71531613  0.12100006    -0.46400
C1042       C  0.50653728  0.88034491  0.70123800     0.42700
N1043       N  0.48953560  0.92117354  0.68035822     0.01600
C1044       C  0.09116515  0.53780331  0.61985845    -0.06300
H1045       H  0.10256259  0.57032422  0.69456709     0.07100
C1046       C  0.46848907  0.59344048  0.69694229    -0.06700
Co1047     Co  0.04951374  0.96203055  0.65833592     0.74200
N1048       N  0.07279177  0.52876406  0.67998729    -0.25800
Co1049     Co  0.04285993  0.55405163  0.65735288     0.74100
C1050       C  0.50040618  0.61027715  0.70523519     0.42800
N1051       N  0.42677903  0.51156839  0.68393144     0.01200
N1052       N  0.01318242  0.58152534  0.67917305     0.01300
N1053       N  0.09384578  0.97799963  0.61962155    -0.46700
H1054       H  0.06335124  0.90135392  0.69649810     0.07100
N1055       N  0.07726891  0.99282392  0.67919064     0.01600
N1056       N  0.01181582  0.57758196  0.63450848     0.01300
C1057       C  0.49500703  0.59713423  0.60984504     0.42900
N1058       N  0.42850864  0.97339382  0.68346891    -0.25300
C1059       C  0.03334566  0.91350473  0.62163305    -0.06200
N1060       N  0.47790197  0.89591683  0.69278937    -0.46400
N1061       N  0.02296002  0.59400379  0.61763776    -0.46600
C1062       C  0.50333496  0.89797830  0.60789815     0.42700
N1063       N  0.07414992  0.99093816  0.63474580     0.01600
N1064       N  0.42679639  0.97548732  0.63909481    -0.25300
N1065       N  0.02328531  0.93327651  0.68163649    -0.25800
N1066       N  0.42654708  0.51106161  0.63928125     0.01200
H1067       H  0.40669297  0.93542776  0.61924348     0.07100
H1068       H  0.43645588  0.58681215  0.61846632     0.07100
N1069       N  0.07164104  0.52580428  0.63565791    -0.25900
N1070       N  0.48052127  0.57055662  0.68286343    -0.25500
N1071       N  0.48691485  0.92477018  0.63563793     0.01600
C1072       C  0.11335725  0.51175113  0.70255336     0.43000
C1073       C  0.40512476  0.96074539  0.69749650    -0.06700
N1074       N  0.47845461  0.56925933  0.63833928    -0.25500
H1075       H  0.44080254  0.59987118  0.69967732     0.07100
N1076       N  0.10228741  0.98096743  0.69169331    -0.46700
H1077       H  0.39799534  0.93311057  0.69939016     0.07100
C1078       C  0.39610534  0.49387148  0.61369130     0.42800
C1079       C  0.03572751  0.90904653  0.69503605    -0.06200
Co1080     Co  0.45748507  0.94807505  0.65974459     0.73800
N1081       N  0.40256406  0.52430263  0.69671981    -0.46400
C1082       C  0.10573764  0.50600278  0.61015783     0.43100
N1083       N  0.47475752  0.90735439  0.61951838    -0.46400
Co1084     Co  0.45262996  0.54110218  0.66124580     0.73900
C1085       C  0.46450224  0.58530650  0.62194104    -0.06700
C1086       C  0.09599078  0.54250449  0.69325199    -0.06300
N1087       N  0.02129591  0.93286195  0.63725898    -0.25800
N1088       N  0.02599829  0.60563041  0.69172952    -0.46600
H1089       H  0.09563205  0.56547826  0.61629030     0.07100
C1090       C  0.40799281  0.96293553  0.62353672    -0.06700
Cl1091     Cl  0.50136848  0.49759589  0.66088607    -0.49700
C1092       C  0.38704350  0.49653492  0.70641628     0.42800
H1093       H  0.06099810  0.90939350  0.61772067     0.07000
N1094       N  0.40745413  0.52293688  0.62366846    -0.46400
C1095       C  0.11547816  0.50276448  0.29639204     0.42700
N1096       N  0.07831938  0.51903363  0.31964718     0.01600
C1097       C  0.47135108  0.89728720  0.37576380    -0.06300
H1098       H  0.44517254  0.89099730  0.30077631     0.07100
C1099       C  0.40605664  0.52792073  0.30579650    -0.06700
Co1100     Co  0.04414159  0.95221451  0.34193951     0.74200
N1101       N  0.48498296  0.92198223  0.31565757    -0.25800
Co1102     Co  0.45620953  0.94792348  0.33866310     0.74100
C1103       C  0.39061001  0.49808965  0.29486843     0.42800
N1104       N  0.48499623  0.56967242  0.32090821     0.01200
N1105       N  0.42905598  0.98011050  0.31731454     0.01300
N1106       N  0.02438840  0.90747547  0.37976579    -0.46700
H1107       H  0.10694256  0.93938294  0.30575973     0.07100
N1108       N  0.01533141  0.92570636  0.31944464     0.01600
N1109       N  0.42974779  0.97384820  0.36234465     0.01300
C1110       C  0.40288809  0.48214523  0.39032132     0.42900
N1111       N  0.02362052  0.57777190  0.31844148    -0.25300
C1112       C  0.08962934  0.96493909  0.38044599    -0.06200
N1113       N  0.10157694  0.53126348  0.30597632    -0.46400
N1114       N  0.41622914  0.95837258  0.37893416    -0.46600
C1115       C  0.10596585  0.50478981  0.39116452     0.42700
N1116       N  0.01299358  0.92629081  0.36391046     0.01600
N1117       N  0.02245315  0.57835822  0.36283929    -0.25300
N1118       N  0.07508111  0.97979955  0.32032401    -0.25800
N1119       N  0.48541682  0.56231199  0.36514983     0.01200
H1120       H  0.06169397  0.60391044  0.38148976     0.07100
H1121       H  0.40968319  0.54252932  0.38640014     0.07100
N1122       N  0.48371609  0.91727252  0.36019869    -0.25900
N1123       N  0.42924397  0.51343182  0.31884216    -0.25500
N1124       N  0.07619225  0.52031289  0.36441751     0.01600
C1125       C  0.50444472  0.87992702  0.29439549     0.43000
C1126       C  0.03590254  0.60187829  0.30487303    -0.06700
N1127       N  0.42935954  0.50683432  0.36324306    -0.25500
H1128       H  0.39776667  0.55528976  0.30628633     0.07100
N1129       N  0.02773080  0.89998570  0.30758048    -0.46700
H1130       H  0.06340454  0.60986389  0.30309931     0.07100
C1131       C  0.50073688  0.59099114  0.39181162     0.42800
C1132       C  0.10009656  0.96708564  0.30756296    -0.06200
Co1133     Co  0.05080632  0.54933977  0.34125720     0.73800
N1134       N  0.47128978  0.59602340  0.30990455    -0.46400
C1135       C  0.50307027  0.88347540  0.38605498     0.43100
N1136       N  0.09455404  0.53297864  0.37998849    -0.46400
Co1137     Co  0.45671168  0.53839831  0.34202749     0.73900
C1138       C  0.41260372  0.51587987  0.38062027    -0.06700
C1139       C  0.47285020  0.89837366  0.30224953    -0.06300
N1140       N  0.07148956  0.97859826  0.36468182    -0.25800
N1141       N  0.40653439  0.96940098  0.30310675    -0.46600
H1142       H  0.44363968  0.89454129  0.37970143     0.07100
C1143       C  0.03414572  0.59871148  0.37805081    -0.06700
Cl1144     Cl  0.50247297  0.49198115  0.33982316    -0.49700
C1145       C  0.49895254  0.61345464  0.30125393     0.42800
H1146       H  0.09226298  0.93690274  0.38373743     0.07000
N1147       N  0.47243896  0.57911743  0.38128812    -0.46400
N1148       N  0.00407019  0.69912718  0.49893431    -0.36400
N1149       N  0.01400442  0.75535937  0.47036392    -0.56900
N1150       N  0.01268816  0.80851892  0.50220437    -0.36400
N1151       N  0.00271826  0.75180429  0.53105926    -0.56900
C1152       C  0.99480847  0.68302038  0.48142854     0.27200
C1153       C  0.98853857  0.68098925  0.51439331     0.27200
C1154       C  0.00400777  0.82809147  0.48559973     0.27200
C1155       C  0.00074370  0.82608796  0.51879766     0.27200
C1156       C  0.02089184  0.72746221  0.45812711     0.35800
C1157       C  0.02385927  0.78467563  0.45983519     0.35800
C1158       C  0.00548765  0.72154584  0.54206657     0.35800
C1159       C  0.01119499  0.77837093  0.54382692     0.35800
C1160       C  0.97283467  0.65432593  0.48577569    -0.21700
C1161       C  0.96928770  0.65272551  0.50678466    -0.21700
C1162       C  0.98646851  0.85872688  0.49167739    -0.21700
C1163       C  0.98459644  0.85754746  0.51278748    -0.21700
C1164       C  0.03619029  0.73900793  0.43989548    -0.22700
C1165       C  0.03784840  0.77536616  0.44092443    -0.22700
C1166       C  0.01626359  0.72878270  0.56184702    -0.22700
C1167       C  0.02001927  0.76492342  0.56294132    -0.22700
C1168       C  0.00775879  0.69294027  0.46197124    -0.18100
C1169       C  0.99386885  0.68830218  0.53513190    -0.18100
C1170       C  0.00587980  0.81451100  0.53909025    -0.18100
C1171       C  0.01334237  0.81925288  0.46535812    -0.18100
H1172       H  0.96138793  0.63601118  0.47498928     0.14800
H1173       H  0.95443043  0.63305494  0.51546970     0.14800
H1174       H  0.97654640  0.87987907  0.48194947     0.14800
H1175       H  0.97285427  0.87747958  0.52258116     0.14800
H1176       H  0.04339024  0.72311098  0.42678265     0.13100
H1177       H  0.04642294  0.79308021  0.42872598     0.13100
H1178       H  0.01981457  0.71012213  0.57436009     0.13100
H1179       H  0.02699622  0.77969654  0.57645925     0.13100
H1180       H  0.02336424  0.71875741  0.50050407     0.26400
H1181       H  0.02896722  0.78607706  0.50234952     0.26400
N1182       N  0.20436165  0.99977569  0.49815177    -0.36400
N1183       N  0.25718604  0.00937171  0.52934188    -0.56900
N1184       N  0.31436238  0.99736427  0.50043716    -0.36400
N1185       N  0.26117513  0.98623615  0.46905778    -0.56900
C1186       C  0.18360209  0.99635403  0.51503520     0.27200
C1187       C  0.18562671  0.98766546  0.48210891     0.27200
C1188       C  0.33194864  0.99351675  0.51825074     0.27200
C1189       C  0.33413048  0.98154372  0.48578231     0.27200
C1190       C  0.22774403  0.01774630  0.54020416     0.35800
C1191       C  0.28520043  0.01845533  0.54094846     0.35800
C1192       C  0.23382295  0.99242180  0.45620076     0.35800
C1193       C  0.29117376  0.98954983  0.45769602     0.35800
C1194       C  0.15092602  0.98229495  0.50961080    -0.21700
C1195       C  0.15207713  0.97715722  0.48871593    -0.21700
C1196       C  0.36366701  0.97550199  0.51485531    -0.21700
C1197       C  0.36513222  0.96809263  0.49423147    -0.21700
C1198       C  0.23709461  0.03270585  0.55871807    -0.22700
C1199       C  0.27350435  0.03337393  0.55912965    -0.22700
C1200       C  0.24647372  0.99956775  0.43661701    -0.22700
C1201       C  0.28286969  0.99786177  0.43757853    -0.22700
C1202       C  0.19289836  0.00768273  0.53485809    -0.18100
C1203       C  0.19758971  0.98861541  0.46158154    -0.18100
C1204       C  0.32561026  0.98144944  0.46483098    -0.18100
C1205       C  0.32037746  0.00701342  0.53722828    -0.18100
H1206       H  0.12837703  0.97702489  0.51958135     0.14800
H1207       H  0.13065537  0.96705679  0.47944571     0.14800
H1208       H  0.38377553  0.96874211  0.52601773     0.14800
H1209       H  0.38654511  0.95452334  0.48634139     0.14800
H1210       H  0.21958106  0.04094292  0.57101544     0.13100
H1211       H  0.28953003  0.04186744  0.57188061     0.13100
H1212       H  0.23108969  0.00476337  0.42297510     0.13100
H1213       H  0.30110021  0.00148646  0.42483201     0.13100
H1214       H  0.22834583  0.01341746  0.49711054     0.26400
H1215       H  0.29194547  0.01306345  0.49800741     0.26400
C1216       C  0.99479862  0.75260036  0.24821289    -0.02300
C1217       C  0.47362140  0.84060039  0.27067520    -0.05600
C1218       C  0.50322755  0.84544305  0.28302064     0.00400
C1219       C  0.02479756  0.82353831  0.28807641    -0.08200
C1220       C  0.02039093  0.79257264  0.27626422    -0.05600
C1221       C  0.99052260  0.78602298  0.26340632     0.00400
C1222       C  0.46421073  0.80781146  0.26189429    -0.08100
C1223       C  0.42539588  0.80656698  0.25484296     0.62300
H1224       H  0.45667573  0.86353172  0.26856587     0.13000
H1225       H  0.04094142  0.77261910  0.27710070     0.13000
C1226       C  0.05676132  0.82648357  0.30205485     0.62500
F1227       F  0.40737913  0.83830033  0.25775420    -0.22700
F1228       F  0.40705585  0.78188527  0.26647354    -0.20000
F1229       F  0.42270419  0.80006191  0.23430475    -0.19700
F1230       F  0.04535241  0.83230940  0.32191905    -0.19700
F1231       F  0.07827371  0.85420653  0.29558704    -0.20000
F1232       F  0.07722780  0.79587284  0.30213018    -0.22700
C1233       C  0.50207572  0.64305536  0.26774016    -0.05600
C1234       C  0.49595926  0.64618608  0.28856322     0.00400
C1235       C  0.99550373  0.68483176  0.29438225    -0.08200
C1236       C  0.99175916  0.71552019  0.28214303    -0.05600
C1237       C  0.99628195  0.71556384  0.26050286     0.00400
C1238       C  0.49888114  0.67191151  0.25392838    -0.08100
C1239       C  0.50210435  0.66181389  0.23129782     0.62300
H1240       H  0.50882780  0.61676222  0.26237436     0.13000
H1241       H  0.98453470  0.73955280  0.28989442     0.13000
C1242       C  0.99320399  0.68725717  0.31754381     0.62500
F1243       F  0.50382966  0.62541448  0.22854660    -0.22700
F1244       F  0.53278757  0.67521447  0.22270730    -0.20000
F1245       F  0.47273942  0.67272930  0.22052585    -0.19700
F1246       F  0.02414293  0.67398319  0.32606774    -0.19700
F1247       F  0.96453014  0.66773243  0.32473110    -0.20000
F1248       F  0.98901520  0.72190058  0.32403872    -0.22700
C1249       C  0.02083822  0.61908240  0.42329380    -0.05600
C1250       C  0.49968392  0.61028749  0.41144705     0.00400
C1251       C  0.47305328  0.63568059  0.41634774    -0.08200
C1252       C  0.47686770  0.65553124  0.43431850    -0.05600
C1253       C  0.00319561  0.66877006  0.44434536     0.00400
C1254       C  0.02389345  0.63764211  0.44174164    -0.08100
C1255       C  0.05039168  0.62501853  0.45774122     0.62300
H1256       H  0.03558421  0.59476778  0.42109041     0.13000
H1257       H  0.45751762  0.67577266  0.43820742     0.13000
C1258       C  0.44187156  0.64339317  0.40229358     0.62500
F1259       F  0.03282272  0.61458032  0.47540150    -0.22700
F1260       F  0.07378919  0.65211277  0.46222907    -0.20000
F1261       F  0.07015586  0.59629454  0.45100977    -0.19700
F1262       F  0.42024092  0.61383521  0.40113979    -0.19700
F1263       F  0.45428301  0.65237529  0.38294925    -0.20000
F1264       F  0.42120550  0.67131469  0.40926971    -0.22700
C1265       C  0.48723479  0.82110471  0.43178012    -0.05600
C1266       C  0.00581339  0.84433207  0.44837492     0.00400
C1267       C  0.02968335  0.87148262  0.44243668    -0.08200
C1268       C  0.02391924  0.88914427  0.42371537    -0.05600
C1269       C  0.50599846  0.86421350  0.40599001     0.00400
C1270       C  0.48117455  0.83816037  0.41292290    -0.08100
C1271       C  0.44911266  0.82672477  0.40056779     0.62300
H1272       H  0.46848375  0.80150069  0.43751639     0.13000
H1273       H  0.04192876  0.91005390  0.41883877     0.13000
C1274       C  0.06184003  0.88047542  0.45533419     0.62500
F1275       F  0.43565251  0.79451374  0.40746302    -0.22700
F1276       F  0.45834924  0.82252989  0.38020633    -0.20000
F1277       F  0.42234340  0.85168642  0.40242903    -0.19700
F1278       F  0.08285130  0.85061019  0.45792431    -0.19700
F1279       F  0.05083876  0.89240853  0.47428454    -0.20000
F1280       F  0.08254334  0.90673203  0.44629535    -0.22700
C1281       C  0.15816700  0.02187199  0.43845046    -0.05600
C1282       C  0.17113003  0.98884289  0.44482392     0.00400
C1283       C  0.15895563  0.47056188  0.43663996    -0.08200
C1284       C  0.13748427  0.47289107  0.41918810    -0.05600
C1285       C  0.12767842  0.50574322  0.41031438     0.00400
C1286       C  0.13702613  0.02570593  0.42090346    -0.08100
C1287       C  0.12557949  0.06270590  0.41452277     0.62300
H1288       H  0.16608916  0.04497263  0.44704810     0.13000
H1289       H  0.12900779  0.44855029  0.41219569     0.13000
C1290       C  0.17127023  0.43444757  0.44450299     0.62500
F1291       F  0.13708681  0.08839786  0.42797147    -0.22700
F1292       F  0.09594696  0.57993976  0.41039230    -0.20000
F1293       F  0.13947275  0.07092046  0.39541259    -0.19700
F1294       F  0.16075067  0.40719581  0.43184282    -0.19700
F1295       F  0.16724901  0.91381885  0.45976229    -0.20000
F1296       F  0.20796702  0.43343450  0.44553368    -0.22700
C1297       C  0.37287765  0.94931944  0.41737649    -0.05600
C1298       C  0.38928750  0.47612344  0.41135546     0.00400
C1299       C  0.40014798  0.49691950  0.42816571    -0.08200
C1300       C  0.37829415  0.49767874  0.44564848    -0.05600
C1301       C  0.35407670  0.97571191  0.44935757     0.00400
C1302       C  0.35342267  0.94665506  0.43579352    -0.08100
C1303       C  0.33273489  0.91313128  0.44097214     0.62300
H1304       H  0.36981385  0.92922466  0.40577344     0.13000
H1305       H  0.38409286  0.51623044  0.45776776     0.13000
C1306       C  0.43505603  0.51705995  0.42898283     0.62500
F1307       F  0.33924572  0.88662080  0.42689039    -0.22700
F1308       F  0.29658066  0.91978259  0.44130965    -0.20000
F1309       F  0.34300984  0.90070194  0.46002166    -0.19700
F1310       F  0.42834471  0.55313334  0.42916307    -0.19700
F1311       F  0.45770318  0.50932356  0.41286916    -0.20000
F1312       F  0.45267461  0.50775609  0.44677025    -0.22700
C1313       C  0.12758274  0.03463792  0.57626752    -0.05600
C1314       C  0.12756260  0.50427921  0.59094248     0.00400
C1315       C  0.14623379  0.47331679  0.58455163    -0.08200
C1316       C  0.16545550  0.47448353  0.56598387    -0.05600
C1317       C  0.16626154  0.00597919  0.55172553     0.00400
C1318       C  0.14659953  0.03605605  0.55769168    -0.08100
C1319       C  0.14600925  0.06943021  0.54443214     0.62300
H1320       H  0.11342726  0.05784618  0.58110566     0.13000
H1321       H  0.18021923  0.45144117  0.56087843     0.13000
C1322       C  0.14767214  0.43965041  0.59748373     0.62500
F1323       F  0.13592659  0.56723435  0.52991440    -0.22700
F1324       F  0.18847847  0.57950694  0.54457141    -0.20000
F1325       F  0.18015282  0.08200415  0.54123049    -0.19700
F1326       F  0.11439433  0.42421522  0.59835742    -0.19700
F1327       F  0.15987481  0.94748800  0.61481397    -0.20000
F1328       F  0.17191559  0.91535185  0.58704227    -0.22700
C1329       C  0.38920845  0.51761769  0.57860358    -0.05600
C1330       C  0.37754768  0.49392683  0.59397616     0.00400
C1331       C  0.34913147  0.97058986  0.58792348    -0.08200
C1332       C  0.33505823  0.97351565  0.56823165    -0.05600
C1333       C  0.34311259  0.00240109  0.55541752     0.00400
C1334       C  0.37343177  0.51815818  0.55912717    -0.08100
C1335       C  0.38387199  0.54639250  0.54348774     0.62300
H1336       H  0.41030755  0.53613140  0.58210103     0.13000
H1337       H  0.31578465  0.95421488  0.56307361     0.13000
C1338       C  0.33472474  0.94147170  0.60196489     0.62500
F1339       F  0.40000113  0.08303209  0.55750206    -0.22700
F1340       F  0.34457390  0.08001264  0.54519646    -0.20000
F1341       F  0.39688929  0.53049794  0.52598456    -0.19700
F1342       F  0.33272737  0.95265570  0.62204194    -0.19700
F1343       F  0.33905061  0.41178255  0.60319341    -0.20000
F1344       F  0.29426420  0.45148254  0.60354773    -0.22700
C1345       C  0.46241666  0.63485130  0.58510985    -0.05600
C1346       C  0.49363082  0.61567724  0.58968467     0.00400
C1347       C  0.01857751  0.61628734  0.57161882    -0.08200
C1348       C  0.01620070  0.63652206  0.55359437    -0.05600
C1349       C  0.98801730  0.66011153  0.55044381     0.00400
C1350       C  0.45905818  0.65473638  0.56696968    -0.08100
C1351       C  0.42486549  0.67487151  0.56252683     0.62300
H1352       H  0.44092216  0.63535045  0.59619235     0.13000
H1353       H  0.03776028  0.63616801  0.54248142     0.13000
C1354       C  0.05023874  0.59202772  0.57448365     0.62500
F1355       F  0.39892270  0.66821037  0.57721983    -0.22700
F1356       F  0.41174648  0.66456770  0.54378679    -0.20000
F1357       F  0.43112817  0.71100157  0.56205306    -0.19700
F1358       F  0.03926284  0.55897927  0.58142720    -0.19700
F1359       F  0.07309019  0.60713610  0.58839633    -0.20000
F1360       F  0.06855234  0.58707713  0.55628691    -0.22700
C1361       C  0.02728663  0.88480406  0.57838776    -0.05600
C1362       C  0.50330551  0.87812598  0.58795577     0.00400
C1363       C  0.47193997  0.86824896  0.57721183    -0.08200
C1364       C  0.47534159  0.84798133  0.55922095    -0.05600
C1365       C  0.00286345  0.83989739  0.55626826     0.00400
C1366       C  0.02994243  0.86477797  0.56042519    -0.08100
C1367       C  0.06234170  0.86895083  0.54652333     0.62300
H1368       H  0.04725119  0.90469079  0.58146430     0.13000
H1369       H  0.45188722  0.83873787  0.55134904     0.13000
C1370       C  0.43492183  0.87864885  0.58439945     0.62500
F1371       F  0.08770866  0.89097958  0.55493924    -0.22700
F1372       F  0.05233217  0.88343047  0.52794558    -0.20000
F1373       F  0.07808065  0.83622382  0.54329316    -0.19700
F1374       F  0.43254794  0.91522058  0.58530141    -0.19700
F1375       F  0.42799067  0.86379759  0.60343621    -0.20000
F1376       F  0.40875503  0.86701314  0.57124121    -0.22700
C1377       C  0.07605830  0.78677704  0.21444756    -0.05600
C1378       C  0.10097640  0.75972949  0.21828134     0.00400
C1379       C  0.09552819  0.73741519  0.23534506    -0.08200
C1380       C  0.06196333  0.73737431  0.24472774    -0.05600
C1381       C  0.03284442  0.75889540  0.23799626     0.00400
C1382       C  0.04298324  0.78848979  0.22507915    -0.08100
C1383       C  0.02269539  0.82348411  0.22368199     0.62300
H1384       H  0.08287436  0.80690241  0.20316154     0.13000
H1385       H  0.05911719  0.71988488  0.25772501     0.13000
C1386       C  0.12552240  0.71538335  0.24466712     0.62500
F1387       F  0.03110985  0.84178401  0.20581708    -0.22700
F1388       F  0.03221956  0.84449949  0.23995656    -0.20000
F1389       F  0.98640863  0.81906249  0.22397134    -0.19700
F1390       F  0.15609483  0.73568177  0.24589372    -0.19700
F1391       F  0.13229986  0.68574280  0.23302346    -0.20000
F1392       F  0.11716235  0.70375550  0.26427908    -0.22700
C1393       C  0.42151055  0.74596330  0.20367379    -0.05600
C1394       C  0.39087691  0.73891449  0.21515059     0.00400
C1395       C  0.39399693  0.72698408  0.23538246    -0.08200
C1396       C  0.42776590  0.72744625  0.24443228    -0.05600
C1397       C  0.45949127  0.73841982  0.23399060     0.00400
C1398       C  0.45601940  0.74209450  0.21188116    -0.08100
C1399       C  0.48420887  0.73836279  0.19505568     0.62300
H1400       H  0.41835441  0.75230396  0.18754909     0.13000
H1401       H  0.42868193  0.72144235  0.26057237     0.13000
C1402       C  0.36127499  0.71615181  0.24773214     0.62500
F1403       F  0.47219047  0.71436664  0.18070771    -0.22700
F1404       F  0.51626672  0.72545459  0.20137354    -0.20000
F1405       F  0.48926839  0.77057008  0.18517749    -0.19700
F1406       F  0.34445285  0.68820458  0.23823399    -0.19700
F1407       F  0.33795637  0.74453055  0.24901699    -0.20000
F1408       F  0.36977531  0.70541440  0.26741552    -0.22700
C1409       C  0.26048448  0.61053492  0.05771956    -0.05600
C1410       C  0.23019439  0.58950814  0.05495673     0.00400
C1411       C  0.20111837  0.59259788  0.06876139    -0.08200
C1412       C  0.20551009  0.61306266  0.08639279    -0.05600
C1413       C  0.23693583  0.63214842  0.08996960     0.00400
C1414       C  0.26349628  0.63353045  0.07438186    -0.08100
C1415       C  0.29442549  0.65939352  0.07441285     0.62300
H1416       H  0.28208753  0.60870888  0.04668211     0.13000
H1417       H  0.18423901  0.61349384  0.09769334     0.13000
C1418       C  0.16549742  0.57429462  0.06604848     0.62500
F1419       F  0.30605825  0.66664523  0.05464942    -0.22700
F1420       F  0.32249632  0.64480053  0.08510203    -0.20000
F1421       F  0.28441308  0.69139638  0.08295990    -0.19700
F1422       F  0.15982305  0.55077815  0.08211559    -0.19700
F1423       F  0.16307120  0.55589818  0.04791756    -0.20000
F1424       F  0.13874143  0.59955392  0.06622119    -0.22700
C1425       C  0.23133952  0.88768558  0.05611476    -0.05600
C1426       C  0.26292811  0.90637285  0.05247192     0.00400
C1427       C  0.29296971  0.89962231  0.06477537    -0.08200
C1428       C  0.28823614  0.87942650  0.08277596    -0.05600
C1429       C  0.25546976  0.86309749  0.08751968     0.00400
C1430       C  0.22791696  0.86405805  0.07269575    -0.08100
C1431       C  0.19563148  0.83987328  0.07323704     0.62300
H1432       H  0.20910969  0.89182655  0.04586803     0.13000
H1433       H  0.31004994  0.87678137  0.09340819     0.13000
C1434       C  0.32964322  0.91301865  0.05858930     0.62500
F1435       F  0.18369350  0.83343890  0.05361119    -0.22700
F1436       F  0.16826214  0.85578609  0.08401058    -0.20000
F1437       F  0.20395964  0.80727932  0.08188916    -0.19700
F1438       F  0.33003622  0.94960501  0.05705848    -0.19700
F1439       F  0.33876333  0.89892141  0.03979680    -0.20000
F1440       F  0.35532730  0.90290216  0.07256448    -0.22700
C1441       C  0.26078941  0.60880838  0.94436252    -0.05600
C1442       C  0.22793101  0.59224087  0.94768851     0.00400
C1443       C  0.19898984  0.60039886  0.93475085    -0.08200
C1444       C  0.20544218  0.62170328  0.91737493    -0.05600
C1445       C  0.23929349  0.63620456  0.91301137     0.00400
C1446       C  0.26669462  0.63198280  0.92778038    -0.08100
C1447       C  0.30215278  0.65113197  0.92674326     0.62300
H1448       H  0.28234392  0.60273720  0.95477573     0.13000
H1449       H  0.18373760  0.62623453  0.90683028     0.13000
C1450       C  0.16132836  0.58679061  0.93819099     0.62500
F1451       F  0.31793415  0.65249407  0.94580844    -0.22700
F1452       F  0.29763003  0.68583926  0.92017091    -0.20000
F1453       F  0.32502178  0.63313545  0.91383113    -0.19700
F1454       F  0.15782314  0.56548130  0.95540566    -0.19700
F1455       F  0.15084554  0.56745970  0.92138430    -0.20000
F1456       F  0.13854435  0.61535231  0.94045651    -0.22700
C1457       C  0.28465986  0.89010817  0.91530042    -0.05600
C1458       C  0.25245524  0.87284995  0.91080693     0.00400
C1459       C  0.22423217  0.87415952  0.92546826    -0.08200
C1460       C  0.22689336  0.89799661  0.94178995    -0.05600
C1461       C  0.25811765  0.91712270  0.94532734     0.00400
C1462       C  0.28837427  0.91125958  0.93280562    -0.08100
C1463       C  0.32427420  0.92731756  0.93784715     0.62300
H1464       H  0.30687641  0.88763240  0.90475644     0.13000
H1465       H  0.20455341  0.90147526  0.95218324     0.13000
C1466       C  0.19210500  0.84979226  0.92515116     0.62500
F1467       F  0.35138264  0.91193582  0.92652162    -0.22700
F1468       F  0.33176670  0.92191667  0.95833072    -0.20000
F1469       F  0.32414233  0.96332353  0.93369054    -0.19700
F1470       F  0.20115449  0.81684916  0.91749278    -0.19700
F1471       F  0.16549807  0.86509290  0.91356280    -0.20000
F1472       F  0.17877664  0.84419549  0.94473799    -0.22700
C1473       C  0.02937771  0.69685942  0.73515351    -0.05600
C1474       C  0.50252623  0.71270585  0.73597300     0.00400
C1475       C  0.47656573  0.70489034  0.72024015    -0.08200
C1476       C  0.47672251  0.67085742  0.71124759    -0.05600
C1477       C  0.50201994  0.64489555  0.71598501     0.00400
C1478       C  0.02963958  0.66400728  0.72508758    -0.08100
C1479       C  0.06119213  0.63908480  0.72804769     0.62300
H1480       H  0.05245172  0.70294260  0.74401949     0.13000
H1481       H  0.45748019  0.66439810  0.69964038     0.13000
C1482       C  0.44974256  0.73155085  0.71132842     0.62500
F1483       F  0.08414550  0.65078138  0.74303830    -0.22700
F1484       F  0.08042971  0.63679175  0.70999592    -0.20000
F1485       F  0.04935269  0.60570256  0.73385827    -0.19700
F1486       F  0.42931211  0.74722621  0.72627543    -0.19700
F1487       F  0.42606440  0.71566516  0.69810095    -0.20000
F1488       F  0.46738854  0.75729850  0.70005214    -0.22700
C1489       C  0.47409186  0.80513345  0.73566234    -0.05600
C1490       C  0.50184175  0.77967790  0.73448835     0.00400
C1491       C  0.02624662  0.79689431  0.71875749    -0.08200
C1492       C  0.02712809  0.83149482  0.71019635    -0.05600
C1493       C  0.50438944  0.84619850  0.71275366     0.00400
C1494       C  0.47561525  0.83848014  0.72605800    -0.08100
C1495       C  0.44667304  0.86560952  0.73083521     0.62300
H1496       H  0.45070381  0.79975342  0.74467606     0.13000
H1497       H  0.04773019  0.83869210  0.69930793     0.13000
C1498       C  0.05335439  0.77038219  0.71005482     0.62500
F1499       F  0.42661952  0.85590009  0.74784094    -0.22700
F1500       F  0.42389229  0.86871935  0.71439862    -0.20000
F1501       F  0.46174712  0.89827272  0.73491382    -0.19700
F1502       F  0.07412962  0.75542648  0.72508444    -0.19700
F1503       F  0.07662537  0.78620328  0.69620671    -0.20000
F1504       F  0.03599291  0.74408367  0.69949594    -0.22700
C1505       C  0.05880866  0.78423646  0.76177129    -0.05600
C1506       C  0.03415872  0.75564142  0.76351836     0.00400
C1507       C  0.04243255  0.72902458  0.77895645    -0.08200
C1508       C  0.07604386  0.73006386  0.78863287    -0.05600
C1509       C  0.10115763  0.75683485  0.78488046     0.00400
C1510       C  0.09228581  0.78453167  0.77120691    -0.08100
C1511       C  0.11856254  0.81382777  0.76577296     0.62300
H1512       H  0.05246677  0.80727514  0.75278914     0.13000
H1513       H  0.08264201  0.71028731  0.80006708     0.13000
C1514       C  0.01628705  0.70090516  0.78711282     0.62500
F1515       F  0.10651988  0.83554232  0.75005025    -0.22700
F1516       F  0.15039022  0.79888072  0.75943795    -0.20000
F1517       F  0.12418530  0.83488542  0.78262647    -0.19700
F1518       F  0.00158193  0.68116518  0.77175555    -0.19700
F1519       F  0.98953298  0.71702845  0.79824907    -0.20000
F1520       F  0.03258784  0.67683149  0.80017943    -0.22700
C1521       C  0.44225635  0.71912995  0.76367990    -0.05600
C1522       C  0.46752963  0.74720817  0.76489645     0.00400
C1523       C  0.45958300  0.77424063  0.78003002    -0.08200
C1524       C  0.42578495  0.77397697  0.78989221    -0.05600
C1525       C  0.40032880  0.74741713  0.78688942     0.00400
C1526       C  0.40895828  0.71917201  0.77373536    -0.08100
C1527       C  0.38276172  0.68927741  0.76974966     0.62300
H1528       H  0.44806803  0.69618240  0.75466604     0.13000
H1529       H  0.41920517  0.79425338  0.80088857     0.13000
C1530       C  0.48598219  0.80236825  0.78753999     0.62500
F1531       F  0.39390552  0.66759521  0.75393586    -0.22700
F1532       F  0.34998439  0.70322958  0.76441408    -0.20000
F1533       F  0.37908770  0.66840683  0.78713786    -0.19700
F1534       F  0.50050521  0.82207723  0.77178524    -0.19700
F1535       F  0.51287450  0.78636576  0.79855090    -0.20000
F1536       F  0.46998724  0.82653011  0.80055811    -0.22700
C1537       C  0.32700048  0.47215386  0.71533832    -0.05600
C1538       C  0.35198306  0.49931429  0.71741127     0.00400
C1539       C  0.34402676  0.02613628  0.72907964    -0.08200
C1540       C  0.30965715  0.02823623  0.73767459    -0.05600
C1541       C  0.28203214  0.50338442  0.73665745     0.00400
C1542       C  0.29237913  0.47336353  0.72411632    -0.08100
C1543       C  0.27057398  0.44021982  0.71954710     0.62300
H1544       H  0.33458110  0.44934869  0.70630088     0.13000
H1545       H  0.30399388  0.05183492  0.74612216     0.13000
C1546       C  0.36984742  0.05672264  0.73242600     0.62500
F1547       F  0.28372087  0.41207797  0.73095413    -0.22700
F1548       F  0.27389004  0.43200974  0.69899852    -0.20000
F1549       F  0.23641733  0.94105901  0.72177299    -0.19700
F1550       F  0.37465326  0.57894080  0.71680447    -0.19700
F1551       F  0.40270091  0.04377680  0.73840683    -0.20000
F1552       F  0.35812929  0.07956733  0.74754337    -0.22700
C1553       C  0.21456162  0.00596874  0.71551466    -0.05600
C1554       C  0.21056403  0.50906045  0.73795870     0.00400
C1555       C  0.17557726  0.51413639  0.74743206    -0.08200
C1556       C  0.14516188  0.51448080  0.73494923    -0.05600
C1557       C  0.14716153  0.51176138  0.71385063     0.00400
C1558       C  0.18426185  0.00570793  0.70294482    -0.08100
C1559       C  0.18816923  0.00120824  0.67996067     0.62300
H1560       H  0.24010368  0.00449066  0.70800687     0.13000
H1561       H  0.11884184  0.51784211  0.74154181     0.13000
C1562       C  0.16809464  0.52135932  0.77017142     0.62500
F1563       F  0.22349160  0.00031903  0.67378625    -0.22700
F1564       F  0.17174755  0.02907303  0.66982549    -0.20000
F1565       F  0.17244224  0.96966797  0.67425454    -0.19700
F1566       F  0.17564509  0.55636373  0.77443925    -0.19700
F1567       F  0.18691823  0.49930681  0.78301475    -0.20000
F1568       F  0.13259434  0.51617001  0.77525605    -0.22700
C1569       C  0.24807203  0.53954311  0.78517114    -0.05600
C1570       C  0.24622132  0.54139274  0.76345723     0.00400
C1571       C  0.24255144  0.57690112  0.75450058    -0.08200
C1572       C  0.24271818  0.60662592  0.76746928    -0.05600
C1573       C  0.24563223  0.60364189  0.78854765     0.00400
C1574       C  0.24795448  0.56979751  0.79772751    -0.08100
C1575       C  0.24958017  0.56577862  0.82083480     0.62300
H1576       H  0.24927316  0.51403187  0.79266856     0.13000
H1577       H  0.23975126  0.63321708  0.76125604     0.13000
C1578       C  0.23586750  0.58577546  0.73185030     0.62500
F1579       F  0.25147073  0.53054381  0.82694962    -0.22700
F1580       F  0.21939542  0.58052612  0.82955247    -0.20000
F1581       F  0.27931251  0.58297910  0.82814641    -0.19700
F1582       F  0.20040115  0.58052848  0.72738022    -0.19700
F1583       F  0.25688766  0.56634373  0.71878150    -0.20000
F1584       F  0.24323892  0.62102737  0.72731371    -0.22700
C1585       C  0.22161927  0.94264625  0.76115219    -0.05600
C1586       C  0.24924434  0.96808980  0.76362814     0.00400
C1587       C  0.27888732  0.95638141  0.77620350    -0.08200
C1588       C  0.27849661  0.92185303  0.78490333    -0.05600
C1589       C  0.25102948  0.89767166  0.78170403     0.00400
C1590       C  0.22341568  0.90752110  0.76831933    -0.08100
C1591       C  0.19633779  0.88181899  0.75967229     0.62300
H1592       H  0.19879951  0.94842656  0.75185795     0.13000
H1593       H  0.30012441  0.91376383  0.79482566     0.13000
C1594       C  0.31222028  0.97710992  0.78197985     0.62500
F1595       F  0.19514926  0.88566463  0.73860456    -0.22700
F1596       F  0.16307976  0.88964625  0.76760944    -0.20000
F1597       F  0.20450903  0.84669531  0.76360841    -0.19700
F1598       F  0.31246141  0.01218152  0.77648568    -0.19700
F1599       F  0.34164034  0.96106973  0.77315194    -0.20000
F1600       F  0.31607861  0.97605951  0.80303866    -0.22700
C1601       C  0.11052030  0.78970023  0.08561835    -0.05600
C1602       C  0.12851211  0.75747531  0.08921067     0.00400
C1603       C  0.12878816  0.73131932  0.07364081    -0.08200
C1604       C  0.10599698  0.73589722  0.05686771    -0.05600
C1605       C  0.08589185  0.76689786  0.05426641     0.00400
C1606       C  0.09009959  0.79534826  0.06797167    -0.08100
C1607       C  0.07332719  0.83139898  0.06387401     0.62300
H1608       H  0.11190809  0.81037839  0.09698069     0.13000
H1609       H  0.10335953  0.71493391  0.04572665     0.13000
C1610       C  0.15352118  0.69940768  0.07376047     0.62500
F1611       F  0.03666050  0.82917229  0.06486261    -0.22700
F1612       F  0.08332903  0.84331415  0.04460724    -0.20000
F1613       F  0.08418965  0.85635944  0.07793295    -0.19700
F1614       F  0.13848441  0.67211576  0.08508963    -0.19700
F1615       F  0.18634062  0.70830360  0.08168729    -0.20000
F1616       F  0.15942128  0.68720053  0.05409013    -0.22700
C1617       C  0.38856946  0.76231155  0.05790904    -0.05600
C1618       C  0.40766579  0.73081247  0.05479904     0.00400
C1619       C  0.40159655  0.70137072  0.06800063    -0.08200
C1620       C  0.38054014  0.70638294  0.08557027    -0.05600
C1621       C  0.36316139  0.73874493  0.08942342     0.00400
C1622       C  0.36440337  0.76590754  0.07421082    -0.08100
C1623       C  0.34012345  0.79812543  0.07410517     0.62300
H1624       H  0.39246536  0.78425711  0.04727685     0.13000
H1625       H  0.37818663  0.68476981  0.09655784     0.13000
C1626       C  0.41694796  0.66457501  0.06459101     0.62500
F1627       F  0.33335966  0.80918517  0.05423642    -0.22700
F1628       F  0.35636478  0.82568790  0.08421860    -0.20000
F1629       F  0.30753895  0.79041378  0.08306837    -0.19700
F1630       F  0.43878304  0.65551271  0.08077123    -0.19700
F1631       F  0.43636515  0.66188649  0.04663574    -0.20000
F1632       F  0.38936762  0.64036128  0.06374647    -0.22700
C1633       C  0.10746989  0.74346477  0.94504360    -0.05600
C1634       C  0.08739431  0.77447949  0.94734339     0.00400
C1635       C  0.09212246  0.80292393  0.93333681    -0.08200
C1636       C  0.11284860  0.79707062  0.91566252    -0.05600
C1637       C  0.13048190  0.76457134  0.91228447     0.00400
C1638       C  0.13041578  0.73862644  0.92824759    -0.08100
C1639       C  0.15382752  0.70582240  0.92825157     0.62300
H1640       H  0.10438010  0.72243818  0.95635447     0.13000
H1641       H  0.11431791  0.81762102  0.90400356     0.12200
C1642       C  0.07509193  0.83895049  0.93692409     0.62500
F1643       F  0.16027058  0.69417405  0.94805226    -0.22700
F1644       F  0.18657635  0.71289257  0.91932541    -0.20000
F1645       F  0.13684593  0.67891207  0.91796995    -0.19700
F1646       F  0.03869540  0.83709248  0.93432992    -0.19700
F1647       F  0.08834227  0.86439818  0.92349400    -0.20000
F1648       F  0.08210979  0.84998461  0.95661141    -0.22700
C1649       C  0.39396544  0.76942412  0.94323814    -0.05600
C1650       C  0.40878503  0.73601983  0.94728885     0.00400
C1651       C  0.39926989  0.70685340  0.93511507    -0.08200
C1652       C  0.37936215  0.71332526  0.91729777    -0.05600
C1653       C  0.36652411  0.74752259  0.91217033     0.00400
C1654       C  0.37127805  0.77537297  0.92652848    -0.08100
C1655       C  0.35226880  0.81090121  0.92523631     0.62300
H1656       H  0.40055462  0.79110417  0.95331974     0.13000
H1657       H  0.37410579  0.69147961  0.90711782     0.13000
C1658       C  0.40979181  0.66924490  0.94115774     0.62500
F1659       F  0.35086869  0.82719128  0.94414472    -0.22700
F1660       F  0.31746281  0.80641498  0.91899675    -0.20000
F1661       F  0.37033418  0.83328318  0.91192644    -0.19700
F1662       F  0.39832985  0.66226668  0.96094760    -0.19700
F1663       F  0.44628704  0.66506456  0.94020759    -0.20000
F1664       F  0.39465692  0.64434554  0.92846749    -0.22700
C1665       C  0.33352535  0.46999629  0.28557949    -0.05600
C1666       C  0.35670164  0.49866177  0.28308919     0.00400
C1667       C  0.34834487  0.02570246  0.26839315    -0.08200
C1668       C  0.31485726  0.02395586  0.25890647    -0.05600
C1669       C  0.28864698  0.49721693  0.26277644     0.00400
C1670       C  0.30026877  0.46786791  0.27568231    -0.08100
C1671       C  0.28045480  0.43271030  0.27896281     0.62300
H1672       H  0.34220448  0.44843526  0.29539638     0.13000
H1673       H  0.30926725  0.04502416  0.24825814     0.13000
C1674       C  0.37202873  0.05729581  0.26306745     0.62500
F1675       F  0.28710315  0.91042248  0.26200144    -0.22700
F1676       F  0.24646891  0.93686995  0.28255066    -0.20000
F1677       F  0.29195005  0.41486633  0.29633715    -0.19700
F1678       F  0.40777959  0.04922793  0.26481477    -0.19700
F1679       F  0.37085270  0.58260319  0.27803639    -0.20000
F1680       F  0.36400723  0.57134606  0.24481091    -0.22700
C1681       C  0.18465510  0.00256805  0.29842009    -0.05600
C1682       C  0.14989448  0.50345068  0.28531283     0.00400
C1683       C  0.15154735  0.50388747  0.26393927    -0.08200
C1684       C  0.18500513  0.50225862  0.25436990    -0.05600
C1685       C  0.21801387  0.50101575  0.26503680     0.00400
C1686       C  0.21802205  0.00547662  0.28816482    -0.08100
C1687       C  0.24849294  0.01646762  0.30230709     0.62300
H1688       H  0.18326915  0.00403785  0.31496917     0.13000
H1689       H  0.18544204  0.50164794  0.23797379     0.13000
C1690       C  0.11784660  0.50657348  0.25131112     0.62500
F1691       F  0.23208781  0.53372841  0.31885217    -0.22700
F1692       F  0.27001371  0.53911765  0.29344039    -0.20000
F1693       F  0.26362159  0.98680188  0.31126562    -0.19700
F1694       F  0.10063916  0.53815469  0.25565136    -0.19700
F1695       F  0.10012934  0.96544096  0.26066133    -0.20000
F1696       F  0.12382170  0.99486152  0.23394977    -0.22700
C1697       C  0.23890102  0.57060032  0.20551571    -0.05600
C1698       C  0.24034283  0.60164748  0.21692989     0.00400
C1699       C  0.24323580  0.59916632  0.23823205    -0.08200
C1700       C  0.24633386  0.56544486  0.24737364    -0.05600
C1701       C  0.24759542  0.53295085  0.23633273     0.00400
C1702       C  0.23973511  0.53615332  0.21453092    -0.08100
C1703       C  0.23061037  0.50638117  0.19952415     0.62300
H1704       H  0.23664718  0.57375845  0.18907594     0.13000
H1705       H  0.24853505  0.56437946  0.26371600     0.13000
C1706       C  0.24305918  0.63234983  0.25125882     0.62500
F1707       F  0.21067227  0.51938703  0.18333242    -0.22700
F1708       F  0.20995934  0.48003311  0.20808646    -0.20000
F1709       F  0.26120386  0.49219146  0.19115005    -0.19700
F1710       F  0.21123570  0.65027185  0.24858918    -0.19700
F1711       F  0.27089165  0.65430706  0.24543875    -0.20000
F1712       F  0.24669435  0.62454726  0.27188200    -0.22700
C1713       C  0.22615312  0.93536828  0.24158667    -0.05600
C1714       C  0.25271354  0.96171188  0.23772160     0.00400
C1715       C  0.28007451  0.95216528  0.22295634    -0.08200
C1716       C  0.27732891  0.91954181  0.21243941    -0.05600
C1717       C  0.25034113  0.89487804  0.21640576     0.00400
C1718       C  0.22537552  0.90212800  0.23202471    -0.08100
C1719       C  0.19847762  0.87492853  0.23992339     0.62300
H1720       H  0.20637750  0.93896306  0.25330261     0.13000
H1721       H  0.29704375  0.91249833  0.20101519     0.13000
C1722       C  0.31413539  0.97329614  0.21861958     0.62500
F1723       F  0.19345692  0.87840133  0.26082641    -0.22700
F1724       F  0.20970984  0.84043200  0.23672685    -0.20000
F1725       F  0.16620383  0.88039290  0.23035909    -0.19700
F1726       F  0.33857514  0.96656984  0.23385474    -0.19700
F1727       F  0.30793851  0.00918119  0.21704034    -0.20000
F1728       F  0.32994480  0.96353136  0.20029211    -0.22700
C1729       C  0.75341748  0.49810706  0.24957359    -0.02300
N1730       N  0.55057747  0.26328968  0.00148327    -0.36400
N1731       N  0.99713795  0.23240293  0.03165307    -0.56900
N1732       N  0.94502506  0.22735485  0.99925438    -0.36400
N1733       N  0.00262607  0.23990101  0.97045238    -0.56900
C1734       C  0.56942422  0.25268953  0.01797365     0.27200
C1735       C  0.56946976  0.25421796  0.98468071     0.27200
C1736       C  0.92406769  0.23520635  0.01548305     0.27200
C1737       C  0.92717879  0.23716288  0.98226007     0.27200
C1738       C  0.52289128  0.26388750  0.04382677     0.35800
C1739       C  0.96819100  0.22151137  0.04226725     0.35800
C1740       C  0.52416885  0.27128972  0.95917622     0.35800
C1741       C  0.97659201  0.22995555  0.95759564     0.35800
C1742       C  0.60101716  0.23704562  0.01165467    -0.21700
C1743       C  0.60090029  0.23771037  0.99052084    -0.21700
C1744       C  0.89217657  0.24956239  0.00873204    -0.21700
C1745       C  0.89404899  0.25056716  0.98765370    -0.21700
C1746       C  0.51079393  0.27322962  0.06311857    -0.22700
C1747       C  0.97782093  0.21060854  0.06178331    -0.22700
C1748       C  0.51353996  0.28392540  0.94016853    -0.22700
C1749       C  0.99061051  0.22280495  0.93840646    -0.22700
C1750       C  0.55886743  0.25837216  0.03842972    -0.18100
C1751       C  0.55944808  0.26245932  0.96441943    -0.18100
C1752       C  0.94004615  0.23322383  0.96209864    -0.18100
C1753       C  0.93301245  0.22858778  0.03608598    -0.18100
H1754       H  0.62185764  0.22630226  0.02125145     0.14800
H1755       H  0.62177715  0.22775967  0.98060209     0.14800
H1756       H  0.86987361  0.25822570  0.01801185     0.14800
H1757       H  0.87353891  0.26028855  0.97748411     0.14800
H1758       H  0.52664207  0.28032490  0.07622599     0.13100
H1759       H  0.96031214  0.20215314  0.07411738     0.13100
H1760       H  0.53044698  0.29242975  0.92757193     0.13100
H1761       H  0.97620640  0.21559831  0.92477771     0.13100
H1762       H  0.52769614  0.27897066  0.00171325     0.26400
H1763       H  0.96903307  0.21347514  0.99963906     0.26400
C1764       C  0.74814834  0.00833628  0.74949083    -0.02300
C1765       C  0.49759507  0.24505602  0.75134590    -0.02300
N1766       N  0.76603031  0.45019491  0.00058904    -0.36400
N1767       N  0.73538358  0.00062443  0.97068385    -0.56900
N1768       N  0.73464413  0.05554930  0.00134199    -0.36400
N1769       N  0.73688647  0.00014786  0.03180021    -0.56900
C1770       C  0.75514314  0.43183429  0.98409839     0.27200
C1771       C  0.75628155  0.43145869  0.01741481     0.27200
C1772       C  0.74515821  0.07404269  0.98460161     0.27200
C1773       C  0.74506849  0.07391895  0.01788018     0.27200
C1774       C  0.76988703  0.47748410  0.95823361     0.35800
C1775       C  0.72752776  0.02941458  0.95919539     0.35800
C1776       C  0.77126278  0.47684191  0.04290712     0.35800
C1777       C  0.72916750  0.02835140  0.04364582     0.35800
C1778       C  0.73826771  0.40090995  0.99049950    -0.21700
C1779       C  0.73912339  0.40059878  0.01163235    -0.21700
C1780       C  0.76208830  0.10496993  0.99050969    -0.21700
C1781       C  0.76186364  0.10497994  0.01164972    -0.21700
C1782       C  0.78097001  0.48905453  0.93904226    -0.22700
C1783       C  0.71491851  0.01920541  0.94025335    -0.22700
C1784       C  0.78245149  0.48801569  0.06198060    -0.22700
C1785       C  0.71812100  0.01709937  0.06291422    -0.22700
C1786       C  0.76196764  0.44196316  0.96358201    -0.18100
C1787       C  0.76418723  0.44132292  0.03765622    -0.18100
C1788       C  0.73775061  0.06368701  0.03828435    -0.18100
C1789       C  0.73767857  0.06416535  0.96433371    -0.18100
H1790       H  0.72698645  0.38054806  0.98094098     0.14800
H1791       H  0.72854625  0.37999590  0.02158697     0.14800
H1792       H  0.77295973  0.12553764  0.98063526     0.14800
H1793       H  0.77262033  0.12549248  0.02130141     0.14800
H1794       H  0.78803121  0.47287618  0.92601952     0.13100
H1795       H  0.70784152  0.03625410  0.92749204     0.13100
H1796       H  0.79091218  0.47156500  0.07471617     0.13100
H1797       H  0.71144414  0.03346622  0.07592437     0.13100
H1798       H  0.78234836  0.47256199  0.00040594     0.26400
H1799       H  0.71803349  0.03342319  0.00147327     0.26400
C1800       C  0.85292745  0.25641892  0.89046353     0.42700
N1801       N  0.82323866  0.24013907  0.86405836     0.01600
C1802       C  0.71063427  0.34872693  0.80772430    -0.06300
H1803       H  0.68466097  0.33893057  0.88653617     0.07100
C1804       C  0.65918739  0.21446681  0.88141348    -0.06700
Co1805     Co  0.79065099  0.30169897  0.84211150     0.74200
N1806       N  0.72516363  0.32261998  0.86533097    -0.25800
Co1807     Co  0.69846990  0.29403376  0.84307109     0.74100
C1808       C  0.64320191  0.24521029  0.89128984     0.42800
N1809       N  0.73754656  0.17714348  0.86475694     0.01200
N1810       N  0.67398451  0.26287894  0.86548734     0.01300
N1811       N  0.77051965  0.35263914  0.80727247    -0.46700
H1812       H  0.83776303  0.31524800  0.88427609     0.07100
N1813       N  0.76007011  0.32606162  0.86496163     0.01600
N1814       N  0.67194608  0.26395671  0.82116515     0.01300
C1815       C  0.63154726  0.24712401  0.80004983     0.42900
N1816       N  0.77244170  0.18038137  0.86429267    -0.25300
C1817       C  0.84575156  0.28873649  0.80645839    -0.06200
N1818       N  0.84262082  0.22804219  0.87943541    -0.46400
N1819       N  0.64636140  0.27568583  0.80900073    -0.46600
C1820       C  0.86361516  0.25744506  0.79784250     0.42700
N1821       N  0.75948697  0.32762343  0.82019093     0.01600
N1822       N  0.77109266  0.18029693  0.81994100    -0.25300
N1823       N  0.81999360  0.27492259  0.86419703    -0.25800
N1824       N  0.73599692  0.17763081  0.82043241     0.01200
H1825       H  0.81164759  0.15043366  0.80402245     0.07100
H1826       H  0.64396551  0.18814230  0.80655658     0.07100
N1827       N  0.72446593  0.32479304  0.82073094    -0.25900
N1828       N  0.67734884  0.22806053  0.86550695    -0.25500
N1829       N  0.82359410  0.24075115  0.81961972     0.01600
C1830       C  0.74325835  0.35462525  0.89177506     0.43000
C1831       C  0.78631449  0.16203197  0.87994454    -0.06700
N1832       N  0.67464755  0.22898929  0.82117857    -0.25500
H1833       H  0.65897678  0.18681911  0.88584229     0.07100
N1834       N  0.77198939  0.34484594  0.88054348    -0.46700
H1835       H  0.81409820  0.16183482  0.88388990     0.07100
C1836       C  0.75234759  0.13933179  0.79837076     0.42800
C1837       C  0.83748470  0.28765163  0.88030391    -0.06200
Co1838     Co  0.79805978  0.21000583  0.84184933     0.73800
N1839       N  0.72639156  0.15697723  0.88018156    -0.46400
C1840       C  0.74131803  0.36712015  0.79846340     0.43100
N1841       N  0.84860757  0.22895075  0.80705217    -0.46400
Co1842     Co  0.70603741  0.20247380  0.84289555     0.73900
C1843       C  0.65016285  0.21596718  0.80835533    -0.06700
C1844       C  0.71217146  0.33938258  0.88178522    -0.06300
N1845       N  0.82128147  0.27574974  0.81967622    -0.25800
N1846       N  0.65387687  0.27430202  0.88074791    -0.46600
H1847       H  0.68278233  0.35543866  0.80738419     0.07100
C1848       C  0.78387106  0.15697089  0.80631926    -0.06700
Cl1849     Cl  0.74829374  0.25207253  0.84226111    -0.49700
C1850       C  0.75572571  0.14608777  0.89035027     0.42800
H1851       H  0.85252575  0.31648327  0.80460497     0.07000
N1852       N  0.72376647  0.15325362  0.80788561    -0.46400
C1853       C  0.74767304  0.36226172  0.20367348     0.42700
N1854       N  0.76423161  0.32445494  0.18103292     0.01600
C1855       C  0.66313189  0.21379065  0.12076467    -0.06300
H1856       H  0.64696164  0.18896587  0.19701334     0.07100
C1857       C  0.78449665  0.15474277  0.19692183    -0.06700
Co1858     Co  0.70258863  0.29290870  0.15854068     0.74200
N1859       N  0.67776667  0.22866033  0.18127216    -0.25800
Co1860     Co  0.70814285  0.20103807  0.15954715     0.74100
C1861       C  0.75260149  0.13851664  0.20587884     0.42800
N1862       N  0.82556099  0.23620805  0.18216389     0.01200
N1863       N  0.73729629  0.17529011  0.18224757     0.01300
N1864       N  0.65833468  0.27352265  0.12053707    -0.46700
H1865       H  0.68844363  0.35311236  0.19619693     0.07100
N1866       N  0.67591179  0.26365909  0.18092507     0.01600
N1867       N  0.73916926  0.17515436  0.13761040     0.01300
C1868       C  0.75689231  0.14606550  0.11128687     0.42900
N1869       N  0.82408028  0.27123030  0.18175748    -0.25300
C1870       C  0.71762327  0.33854733  0.11990217    -0.06200
N1871       N  0.77630182  0.34777089  0.19431381    -0.46400
N1872       N  0.72771032  0.15668647  0.12182975    -0.46600
C1873       C  0.74906721  0.35383808  0.11007910     0.42700
N1874       N  0.67756374  0.26215555  0.13622763     0.01600
N1875       N  0.82335267  0.27106536  0.13715295    -0.25300
N1876       N  0.72910786  0.32293402  0.18067919    -0.25800
N1877       N  0.82592006  0.23619022  0.13750082     0.01200
H1878       H  0.83899437  0.31091310  0.11534347     0.07100
H1879       H  0.81548454  0.15986603  0.11774372     0.07100
N1880       N  0.68044475  0.22731368  0.13670276    -0.25900
N1881       N  0.77238414  0.17724095  0.18252224    -0.25500
N1882       N  0.76508947  0.32371611  0.13646893     0.01600
C1883       C  0.63840808  0.24826269  0.20431817     0.43000
C1884       C  0.84724809  0.28359657  0.19553345    -0.06700
N1885       N  0.77412314  0.17754731  0.13794745    -0.25500
H1886       H  0.81214423  0.14802984  0.19941475     0.07100
N1887       N  0.65249033  0.27637351  0.19421302    -0.46700
H1888       H  0.85448106  0.31115081  0.19741040     0.07100
C1889       C  0.85300209  0.25217003  0.10988709     0.42800
C1890       C  0.71620345  0.34612863  0.19437038    -0.06200
Co1891     Co  0.79474205  0.29819064  0.15921232     0.73800
N1892       N  0.84866066  0.22370015  0.19562024    -0.46400
C1893       C  0.64780635  0.24440843  0.11015502     0.43100
N1894       N  0.77757117  0.34318214  0.12104193    -0.46400
Co1895     Co  0.80008780  0.20632134  0.16014650     0.73900
C1896       C  0.78771022  0.16024292  0.12189329    -0.06700
C1897       C  0.65464523  0.21645118  0.19538248    -0.06300
N1898       N  0.73014264  0.32085884  0.13615349    -0.25800
N1899       N  0.72450958  0.15202334  0.19567928    -0.46600
H1900       H  0.66268758  0.18604150  0.11703731     0.07100
C1901       C  0.83935818  0.28356423  0.12023310    -0.06700
Cl1902     Cl  0.75137136  0.24962480  0.15953685    -0.49700
C1903       C  0.86298234  0.25192645  0.20501358     0.42800
H1904       H  0.69020410  0.33869362  0.11516504     0.07000
N1905       N  0.84336663  0.22378495  0.12141703    -0.46400
C1906       C  0.00171678  0.39499345  0.70638759     0.42700
N1907       N  0.98665941  0.43265855  0.68317308     0.01600
C1908       C  0.58591778  0.03724858  0.61990731    -0.06300
H1909       H  0.60308364  0.06149267  0.69408648     0.07100
C1910       C  0.96859820  0.10367450  0.69363832    -0.06700
Co1911     Co  0.55024069  0.45394023  0.66007476     0.74200
N1912       N  0.57326887  0.01993874  0.67963135    -0.25800
Co1913     Co  0.54148542  0.04707054  0.65881421     0.74100
C1914       C  0.00051689  0.12189371  0.70089200     0.42800
N1915       N  0.92688155  0.01981188  0.68256964     0.01200
N1916       N  0.51308550  0.07171146  0.68209678     0.01300
N1917       N  0.59047291  0.47279260  0.61970371    -0.46700
H1918       H  0.56274915  0.39097967  0.69776502     0.07100
N1919       N  0.57818626  0.48433482  0.68138123     0.01600
N1920       N  0.50886891  0.07251786  0.63739972     0.01300
C1921       C  0.99164426  0.10276478  0.60701474     0.42900
N1922       N  0.92756433  0.48472106  0.68219656    -0.25300
C1923       C  0.53527975  0.40791897  0.62238373    -0.06200
N1924       N  0.97385837  0.40959977  0.69660848    -0.46400
N1925       N  0.51888549  0.09019643  0.62071470    -0.46600
C1926       C  0.00353782  0.39461980  0.61462745     0.42700
N1927       N  0.57431848  0.48425768  0.63657342     0.01600
N1928       N  0.92816915  0.48180606  0.63812870    -0.25300
N1929       N  0.52338128  0.42402177  0.68300805    -0.25800
N1930       N  0.92508144  0.01812786  0.63798940     0.01200
H1931       H  0.90755703  0.43903329  0.62129824     0.07100
H1932       H  0.93370364  0.09358741  0.61691487     0.07100
N1933       N  0.56912619  0.02224895  0.63572609    -0.25900
N1934       N  0.98044495  0.07948821  0.68022557    -0.25500
N1935       N  0.98680591  0.42942942  0.63879323     0.01600
C1936       C  0.61823666  0.00308219  0.69895210     0.43000
C1937       C  0.90419773  0.47233093  0.69605134    -0.06700
N1938       N  0.97691580  0.07633868  0.63604457    -0.25500
H1939       H  0.94091342  0.11000683  0.69646420     0.07100
N1940       N  0.60451823  0.47290590  0.69317275    -0.46700
H1941       H  0.89855259  0.44457022  0.69885165     0.07100
C1942       C  0.89566375  0.00014386  0.61169951     0.42800
C1943       C  0.53521784  0.39888240  0.69613055    -0.06200
Co1944     Co  0.95690293  0.45677138  0.66063898     0.73800
N1945       N  0.90252633  0.03213462  0.69539598    -0.46400
C1946       C  0.59922082  0.00774238  0.60785009     0.43100
N1947       N  0.97475241  0.40784508  0.62450467    -0.46400
Co1948     Co  0.95186963  0.04896707  0.65939805     0.73900
C1949       C  0.96194191  0.09194042  0.61984995    -0.06700
C1950       C  0.59766019  0.03354375  0.69212984    -0.06300
N1951       N  0.52248664  0.42543069  0.63852744    -0.25800
N1952       N  0.52605607  0.09564065  0.69470656    -0.46600
H1953       H  0.58829355  0.06544485  0.61741235     0.07100
C1954       C  0.91035896  0.46720458  0.62281917    -0.06700
Cl1955     Cl  0.00084981  0.00567471  0.65889942    -0.49700
C1956       C  0.88795354  0.00393963  0.70521759     0.42800
H1957       H  0.56320683  0.40508079  0.61883056     0.07000
N1958       N  0.90610023  0.02923410  0.62218221    -0.46400
C1959       C  0.61616424  0.99951601  0.29645980     0.42700
N1960       N  0.57741589  0.01168135  0.31954382     0.01600
C1961       C  0.96867857  0.41681350  0.38146040    -0.06300
H1962       H  0.94390102  0.39895585  0.30609255     0.07100
C1963       C  0.90476086  0.03621001  0.30536993    -0.06700
Co1964     Co  0.54821182  0.44530198  0.33909214     0.74200
N1965       N  0.98382583  0.43075190  0.32042584    -0.25800
Co1966     Co  0.95533194  0.46073648  0.34186682     0.74100
C1967       C  0.88787394  0.00517108  0.29621593     0.42800
N1968       N  0.98754500  0.07656384  0.31942566     0.01200
N1969       N  0.92863392  0.48966659  0.31896219     0.01300
N1970       N  0.53081068  0.39968750  0.37718446    -0.46700
H1971       H  0.60820686  0.43764425  0.30070956     0.07100
N1972       N  0.52044502  0.41862686  0.31622799     0.01600
N1973       N  0.92919456  0.49105795  0.36392656     0.01300
C1974       C  0.90261558  0.00389722  0.39185080     0.42900
N1975       N  0.52186356  0.06936160  0.32112008    -0.25300
C1976       C  0.59090167  0.45898495  0.37879841    -0.06200
N1977       N  0.60116926  0.02630668  0.30702462    -0.46400
N1978       N  0.91364485  0.47895237  0.38084116    -0.46600
C1979       C  0.60485713  0.98865900  0.38972108     0.42700
N1980       N  0.51870574  0.41688998  0.36087472     0.01600
N1981       N  0.52067939  0.06284246  0.36579962    -0.25300
N1982       N  0.57669314  0.47559524  0.31750288    -0.25800
N1983       N  0.98563188  0.07500626  0.36364506     0.01200
H1984       H  0.55952998  0.08356994  0.38672626     0.07100
H1985       H  0.90989982  0.06294375  0.38391126     0.07100
N1986       N  0.98207168  0.43346427  0.36496440    -0.25900
N1987       N  0.92828024  0.02301436  0.31874814    -0.25500
N1988       N  0.57510014  0.00640371  0.36392114     0.01600
C1989       C  0.00330210  0.38682950  0.30050041     0.43000
C1990       C  0.53428729  0.09403430  0.30792583    -0.06700
N1991       N  0.92791555  0.02250590  0.36311013    -0.25500
H1992       H  0.89736259  0.06383958  0.30443244     0.07100
N1993       N  0.53346508  0.39298161  0.30451625    -0.46700
H1994       H  0.56195254  0.10118399  0.30580666     0.07100
C1995       C  0.99985894  0.10671302  0.38934037     0.42800
C1996       C  0.60036953  0.46486497  0.30337306    -0.06200
Co1997     Co  0.54931473  0.03805514  0.34250325     0.73800
N1998       N  0.97528244  0.10209029  0.30732723    -0.46400
C1999       C  0.99953620  0.40388470  0.39285479     0.43100
N2000       N  0.59275867  0.01785290  0.38000413    -0.46400
Co2001     Co  0.95693669  0.04957594  0.34106283     0.73900
C2002       C  0.91230503  0.03524547  0.37997052    -0.06700
C2003       C  0.97164679  0.40593393  0.30775059    -0.06300
N2004       N  0.57436720  0.47190268  0.36220711    -0.25800
N2005       N  0.90472427  0.47744613  0.30592939    -0.46600
H2006       H  0.94076089  0.41559460  0.38503903     0.07100
C2007       C  0.53202014  0.07953339  0.38259326    -0.06700
Cl2008     Cl  0.00069645  0.00101325  0.34130437    -0.49700
C2009       C  0.00381686  0.11821861  0.29888156     0.42800
H2010       H  0.59533875  0.43125827  0.38237660     0.07000
N2011       N  0.97214703  0.09502353  0.37834161    -0.46400
N2012       N  0.49381665  0.19128734  0.50121105    -0.36400
N2013       N  0.51004995  0.24362799  0.47012070    -0.56900
N2014       N  0.51545228  0.29908702  0.50103456    -0.36400
N2015       N  0.49578589  0.24681628  0.53206050    -0.56900
C2016       C  0.48783316  0.17167665  0.48439333     0.27200
C2017       C  0.47924188  0.17373321  0.51727050     0.27200
C2018       C  0.51393559  0.31947424  0.48388882     0.27200
C2019       C  0.50974736  0.32057412  0.51725546     0.27200
C2020       C  0.51150217  0.21426055  0.45837366     0.35800
C2021       C  0.51915108  0.27123828  0.45783952     0.35800
C2022       C  0.49299228  0.21782452  0.54428655     0.35800
C2023       C  0.50486162  0.27392435  0.54437730     0.35800
C2024       C  0.46939031  0.14110768  0.48983466    -0.21700
C2025       C  0.46404839  0.14236239  0.51067709    -0.21700
C2026       C  0.50839032  0.35458406  0.48937400    -0.21700
C2027       C  0.50592483  0.35528264  0.51042934    -0.21700
C2028       C  0.52175458  0.22325191  0.43859738    -0.22700
C2029       C  0.52589027  0.25927176  0.43815451    -0.22700
C2030       C  0.49991153  0.22669227  0.56442855    -0.22700
C2031       C  0.50701738  0.26222968  0.56451322    -0.22700
C2032       C  0.50006463  0.17998609  0.46447413    -0.18100
C2033       C  0.48237194  0.18372951  0.53787509    -0.18100
C2034       C  0.50879306  0.30966375  0.53805071    -0.18100
C2035       C  0.51814580  0.30745847  0.46346985    -0.18100
H2036       H  0.46110823  0.11990011  0.47987583     0.14800
H2037       H  0.45102049  0.12223159  0.51997269     0.14800
H2038       H  0.50638462  0.37740496  0.47926672     0.14800
H2039       H  0.50150100  0.37863734  0.51963815     0.14800
H2040       H  0.52456300  0.20590154  0.42557252     0.13100
H2041       H  0.53257522  0.27481382  0.42467839     0.13100
H2042       H  0.49935480  0.20951509  0.57778881     0.13100
H2043       H  0.51298641  0.27766528  0.57794138     0.13100
H2044       H  0.51082789  0.21288114  0.50211599     0.26400
H2045       H  0.52284999  0.27256136  0.50178232     0.26400
N2046       N  0.69563983  0.50658655  0.49727927    -0.36400
N2047       N  0.74757534  0.50632328  0.52991048    -0.56900
N2048       N  0.80606156  0.51528316  0.50073268    -0.36400
N2049       N  0.75442037  0.51237939  0.46776337    -0.56900
C2050       C  0.67324688  0.51113894  0.51329044     0.27200
C2051       C  0.67695636  0.51214437  0.47994362     0.27200
C2052       C  0.82480009  0.50634138  0.51747622     0.27200
C2053       C  0.82744665  0.51010608  0.48427329     0.27200
C2054       C  0.71761892  0.50189717  0.54124010     0.35800
C2055       C  0.77509176  0.50375018  0.54302878     0.35800
C2056       C  0.72619620  0.52511401  0.45759247     0.35800
C2057       C  0.78303414  0.52882825  0.45967214     0.35800
C2058       C  0.63963124  0.51966053  0.50602008    -0.21700
C2059       C  0.64206994  0.52053310  0.48489734    -0.21700
C2060       C  0.85904880  0.49645111  0.51168298    -0.21700
C2061       C  0.86048825  0.49817953  0.49060781    -0.21700
C2062       C  0.72633002  0.49561388  0.56155585    -0.22700
C2063       C  0.76258501  0.49700637  0.56270192    -0.22700
C2064       C  0.73674004  0.55161458  0.44394065    -0.22700
C2065       C  0.77328253  0.55275524  0.44459507    -0.22700
C2066       C  0.68239123  0.50702326  0.53416119    -0.18100
C2067       C  0.69176322  0.51091035  0.45999689    -0.18100
C2068       C  0.81764320  0.51799131  0.46397407    -0.18100
C2069       C  0.81157398  0.50655914  0.53773812    -0.18100
H2070       H  0.61593872  0.52506347  0.51499391     0.14800
H2071       H  0.62091027  0.52744722  0.47443532     0.14800
H2072       H  0.88055715  0.48801776  0.52152190     0.14800
H2073       H  0.88334781  0.49187165  0.48114401     0.14800
H2074       H  0.70841955  0.49138356  0.57439030     0.13100
H2075       H  0.77795677  0.49339282  0.57650967     0.13100
H2076       H  0.71993343  0.56746688  0.43403456     0.13100
H2077       H  0.79068298  0.56903579  0.43516623     0.13100
H2078       H  0.72146588  0.49685981  0.49791962     0.26400
H2079       H  0.78098107  0.52704581  0.50066676     0.26400
C2080       C  0.50038658  0.24298299  0.24799427    -0.02300
C2081       C  0.97376622  0.34760577  0.27623610    -0.05600
C2082       C  0.00285495  0.35265960  0.28889611     0.00400
C2083       C  0.52939758  0.31454680  0.28753513    -0.08200
C2084       C  0.52498875  0.28295290  0.27626898    -0.05600
C2085       C  0.49596404  0.27673184  0.26272434     0.00400
C2086       C  0.96594952  0.31511170  0.26670282    -0.08100
C2087       C  0.92724731  0.31237104  0.25982099     0.62300
H2088       H  0.95596236  0.36996389  0.27440056     0.13000
H2089       H  0.54485283  0.26242371  0.27794444     0.13000
C2090       C  0.55963557  0.31725399  0.30273883     0.62500
F2091       F  0.90716649  0.34215006  0.26455753    -0.22700
F2092       F  0.91085012  0.28480806  0.27018456    -0.20000
F2093       F  0.92493900  0.30913058  0.23897629    -0.19700
F2094       F  0.54606442  0.32530689  0.32188495    -0.19700
F2095       F  0.58322946  0.34340509  0.29651426    -0.20000
F2096       F  0.57844657  0.28573962  0.30449836    -0.22700
C2097       C  0.00747916  0.15161688  0.26662299    -0.05600
C2098       C  0.00209820  0.15249334  0.28758665     0.00400
C2099       C  0.49241999  0.17754725  0.29533349    -0.08200
C2100       C  0.49217606  0.20766562  0.28236160    -0.05600
C2101       C  0.50101487  0.20660214  0.26110929     0.00400
C2102       C  0.00449893  0.18200908  0.25392770    -0.08100
C2103       C  0.00820285  0.17450512  0.23094581     0.62300
H2104       H  0.01359975  0.12586885  0.26025159     0.13000
H2105       H  0.48357992  0.23216346  0.28913024     0.13000
C2106       C  0.48392113  0.18124026  0.31798070     0.62500
F2107       F  0.01027721  0.13853416  0.22683321    -0.22700
F2108       F  0.03897785  0.18898916  0.22311219    -0.20000
F2109       F  0.97905779  0.18640773  0.22031023    -0.19700
F2110       F  0.51281477  0.17004782  0.32935951    -0.19700
F2111       F  0.45463719  0.16074130  0.32309727    -0.20000
F2112       F  0.47633320  0.21597074  0.32323634    -0.22700
C2113       C  0.52430379  0.10758551  0.42674136    -0.05600
C2114       C  0.99717324  0.12698555  0.40858514     0.00400
C2115       C  0.97413906  0.15651454  0.41103567    -0.08200
C2116       C  0.97664264  0.17655328  0.42903232    -0.05600
C2117       C  0.49768334  0.15261489  0.44829917     0.00400
C2118       C  0.52578910  0.12858594  0.44441244    -0.08100
C2119       C  0.55793654  0.12665413  0.45834961     0.62300
H2120       H  0.54551209  0.08887064  0.42362061     0.13000
H2121       H  0.95996150  0.19973122  0.43114746     0.13000
C2122       C  0.94810007  0.16775829  0.39452620     0.62500
F2123       F  0.58239439  0.10152574  0.45189097    -0.22700
F2124       F  0.54726411  0.11778379  0.47802489    -0.20000
F2125       F  0.57479877  0.15927275  0.45858958    -0.19700
F2126       F  0.92301211  0.14144818  0.39179381    -0.19700
F2127       F  0.96618683  0.17381691  0.37631833    -0.20000
F2128       F  0.93013933  0.19861159  0.39960259    -0.22700
C2129       C  0.98058945  0.34222493  0.43875420    -0.05600
C2130       C  0.51566919  0.33366471  0.44633738     0.00400
C2131       C  0.54542595  0.34427965  0.43452781    -0.08200
C2132       C  0.53955576  0.36153752  0.41562383    -0.05600
C2133       C  0.00110183  0.38493722  0.41305414     0.00400
C2134       C  0.97443340  0.36093739  0.42042357    -0.08100
C2135       C  0.93999765  0.35346575  0.40920478     0.62300
H2136       H  0.96109348  0.32342430  0.44455002     0.13000
H2137       H  0.56225931  0.36806790  0.40603055     0.13000
C2138       C  0.58299795  0.33761197  0.44208726     0.62500
F2139       F  0.92254265  0.32396911  0.41712759    -0.22700
F2140       F  0.94681069  0.34679084  0.38878171    -0.20000
F2141       F  0.91722791  0.38207043  0.41125500    -0.19700
F2142       F  0.58955902  0.30164327  0.44397035    -0.19700
F2143       F  0.58698915  0.35316008  0.46101982    -0.20000
F2144       F  0.60830328  0.35186018  0.42889836    -0.22700
C2145       C  0.68308340  0.50666925  0.42150274    -0.05600
C2146       C  0.67051479  0.49911404  0.44153780     0.00400
C2147       C  0.62627565  0.99620608  0.44571344    -0.08200
C2148       C  0.60779872  0.99572954  0.42706532    -0.05600
C2149       C  0.62558503  0.98931717  0.40859314     0.00400
C2150       C  0.66143704  0.50356029  0.40429033    -0.08100
C2151       C  0.67624516  0.51228961  0.38310218     0.62300
H2152       H  0.71018786  0.51417059  0.41882018     0.13000
H2153       H  0.57893316  0.99693666  0.42712718     0.13000
C2154       C  0.60481224  0.98415679  0.46434441     0.62500
F2155       F  0.71260403  0.51826273  0.38338697    -0.22700
F2156       F  0.67666199  0.99572114  0.37390396    -0.20000
F2157       F  0.67007691  0.48429396  0.37003793    -0.19700
F2158       F  0.58385437  0.01161384  0.47152527    -0.19700
F2159       F  0.66174785  0.44429500  0.47183964    -0.20000
F2160       F  0.58232800  0.95673414  0.45891812    -0.22700
C2161       C  0.85761680  0.48474272  0.41408813    -0.05600
C2162       C  0.88640638  0.00272546  0.41247137     0.00400
C2163       C  0.89353276  0.02850342  0.42762468    -0.08200
C2164       C  0.86962368  0.03183822  0.44404927    -0.05600
C2165       C  0.84243206  0.51208964  0.44652115     0.00400
C2166       C  0.83509997  0.48651784  0.43122344    -0.08100
C2167       C  0.80291964  0.46209410  0.43217307     0.62300
H2168       H  0.85102215  0.46731702  0.40156888     0.13000
H2169       H  0.87306677  0.05312669  0.45492058     0.13000
C2170       C  0.92646043  0.05180295  0.42783731     0.62500
F2171       F  0.80708540  0.43338915  0.41927769    -0.22700
F2172       F  0.77290475  0.48048352  0.42611695    -0.20000
F2173       F  0.79794530  0.44885385  0.45178737    -0.19700
F2174       F  0.91718413  0.08629173  0.42281668    -0.19700
F2175       F  0.95273527  0.04009386  0.41460598    -0.20000
F2176       F  0.94088307  0.05147096  0.44727645    -0.22700
C2177       C  0.63222044  0.53535020  0.58138103    -0.05600
C2178       C  0.61771263  0.01081119  0.58776545     0.00400
C2179       C  0.61883928  0.98332535  0.57301584    -0.08200
C2180       C  0.63801844  0.98923349  0.55475219    -0.05600
C2181       C  0.65408888  0.50873605  0.55014217     0.00400
C2182       C  0.65036185  0.53889539  0.56262878    -0.08100
C2183       C  0.66644018  0.57438939  0.55635642     0.62300
H2184       H  0.63160890  0.55778680  0.59153732     0.13000
H2185       H  0.64146726  0.96793533  0.54387796     0.13000
C2186       C  0.60078470  0.94774787  0.57639905     0.62500
F2187       F  0.64488382  0.11203696  0.56520616    -0.22700
F2188       F  0.68303727  0.09054725  0.54206064    -0.20000
F2189       F  0.70317066  0.57249803  0.55664796    -0.19700
F2190       F  0.56520387  0.95291053  0.58106951    -0.19700
F2191       F  0.61309279  0.42155471  0.59373408    -0.20000
F2192       F  0.59578002  0.41848336  0.56107821    -0.22700
C2193       C  0.87047395  0.03660438  0.58361108    -0.05600
C2194       C  0.87687521  0.00218237  0.59154129     0.00400
C2195       C  0.87179962  0.46804678  0.57792947    -0.08200
C2196       C  0.85144719  0.47263602  0.56020080    -0.05600
C2197       C  0.83721531  0.50549523  0.55475538     0.00400
C2198       C  0.85123776  0.04234031  0.56553497    -0.08100
C2199       C  0.84290873  0.07980654  0.55822807     0.62300
H2200       H  0.87977912  0.05940940  0.59196786     0.13000
H2201       H  0.84529529  0.45022336  0.55057987     0.13000
C2202       C  0.88635163  0.43120886  0.58216963     0.62500
F2203       F  0.83934456  0.59780585  0.57464829    -0.22700
F2204       F  0.79290512  0.57174652  0.55982500    -0.20000
F2205       F  0.85578429  0.08461665  0.53852358    -0.19700
F2206       F  0.86828615  0.41646896  0.59866675    -0.19700
F2207       F  0.90509793  0.92589846  0.58679401    -0.20000
F2208       F  0.85275254  0.91043494  0.57394542    -0.22700
C2209       C  0.95960006  0.14149310  0.58267945    -0.05600
C2210       C  0.98878002  0.11899412  0.58641934     0.00400
C2211       C  0.51370193  0.11542652  0.57538726    -0.08200
C2212       C  0.50976673  0.13541758  0.55737219    -0.05600
C2213       C  0.47934865  0.15587677  0.55383597     0.00400
C2214       C  0.95721589  0.16143883  0.56453423    -0.08100
C2215       C  0.92622042  0.18668469  0.56121928     0.62300
H2216       H  0.93977676  0.14521108  0.59457219     0.13000
H2217       H  0.53144287  0.13706407  0.54637080     0.13000
C2218       C  0.54735327  0.09376579  0.57817073     0.62500
F2219       F  0.89914149  0.18073057  0.57530577    -0.22700
F2220       F  0.91243995  0.18198576  0.54186703    -0.20000
F2221       F  0.93742131  0.22142115  0.56309926    -0.19700
F2222       F  0.53875803  0.05941873  0.58399029    -0.19700
F2223       F  0.56827107  0.10948016  0.59282051    -0.20000
F2224       F  0.56718741  0.09185029  0.56026806    -0.22700
C2225       C  0.53710007  0.36458648  0.58345875    -0.05600
C2226       C  0.00310855  0.37421509  0.59520692     0.00400
C2227       C  0.97536290  0.35047729  0.58985430    -0.08200
C2228       C  0.97763749  0.33287969  0.57094619    -0.05600
C2229       C  0.50881784  0.33675168  0.55453163     0.00400
C2230       C  0.54010675  0.34524968  0.56522183    -0.08100
C2231       C  0.57640048  0.33307462  0.55755800     0.62300
H2232       H  0.56101171  0.36973668  0.59193991     0.13000
H2233       H  0.95683881  0.31469996  0.56646863     0.13000
C2234       C  0.94484798  0.34155727  0.60443131     0.62500
F2235       F  0.60374535  0.34531487  0.56969461    -0.22700
F2236       F  0.58197399  0.34571545  0.53786561    -0.20000
F2237       F  0.57812316  0.29642815  0.55749100    -0.19700
F2238       F  0.92343612  0.37085341  0.60729596    -0.19700
F2239       F  0.95824785  0.33051233  0.62309293    -0.20000
F2240       F  0.92361838  0.31458526  0.59703956    -0.22700
C2241       C  0.58061498  0.27667045  0.21353947    -0.05600
C2242       C  0.60601544  0.25019128  0.21746498     0.00400
C2243       C  0.60124761  0.22840097  0.23487168    -0.08200
C2244       C  0.56789112  0.22846662  0.24473822    -0.05600
C2245       C  0.53854760  0.24949720  0.23797218     0.00400
C2246       C  0.54824342  0.27884439  0.22473451    -0.08100
C2247       C  0.52879659  0.31443047  0.22394831     0.62300
H2248       H  0.58684981  0.29642453  0.20193645     0.13000
H2249       H  0.56506035  0.21110847  0.25782431     0.13000
C2250       C  0.63157431  0.20646605  0.24378086     0.62500
F2251       F  0.53933327  0.33471914  0.20719593    -0.22700
F2252       F  0.53707185  0.33341559  0.24122840    -0.20000
F2253       F  0.49250436  0.31072862  0.22277485    -0.19700
F2254       F  0.66245828  0.22644768  0.24414296    -0.19700
F2255       F  0.63719930  0.17645271  0.23224371    -0.20000
F2256       F  0.62428486  0.19560876  0.26366456    -0.22700
C2257       C  0.92828435  0.26061833  0.20531784    -0.05600
C2258       C  0.89745976  0.24997086  0.21568358     0.00400
C2259       C  0.90025186  0.23542561  0.23542273    -0.08200
C2260       C  0.93354972  0.23599022  0.24508286    -0.05600
C2261       C  0.96522674  0.24991119  0.23585370     0.00400
C2262       C  0.96257224  0.25701322  0.21395844    -0.08100
C2263       C  0.99175192  0.25637600  0.19753373     0.62300
H2264       H  0.92566655  0.26919299  0.18949798     0.13000
H2265       H  0.93410153  0.22717265  0.26081459     0.13000
C2266       C  0.86761340  0.22127880  0.24669654     0.62500
F2267       F  0.98061126  0.23571116  0.18134507    -0.22700
F2268       F  0.02310076  0.24155073  0.20365855    -0.20000
F2269       F  0.99785432  0.29023873  0.19002284    -0.19700
F2270       F  0.85466869  0.19197765  0.23658809    -0.19700
F2271       F  0.84147746  0.24718132  0.24735628    -0.20000
F2272       F  0.87514971  0.21117262  0.26662503    -0.22700
C2273       C  0.77373440  0.08174785  0.06757671    -0.05600
C2274       C  0.74419389  0.08888228  0.05519666     0.00400
C2275       C  0.72054920  0.11673128  0.06047624    -0.08200
C2276       C  0.72713536  0.13587460  0.07839046    -0.05600
C2277       C  0.75557379  0.12745100  0.09143075     0.00400
C2278       C  0.77959748  0.09992976  0.08590028    -0.08100
C2279       C  0.81027054  0.08811139  0.09941277     0.62300
H2280       H  0.79154229  0.06051155  0.06305595     0.13000
H2281       H  0.70895915  0.15703973  0.08261119     0.13000
C2282       C  0.68757931  0.12695963  0.04844189     0.62500
F2283       F  0.82440317  0.05594722  0.09320552    -0.22700
F2284       F  0.79881459  0.08382914  0.11944508    -0.20000
F2285       F  0.83725940  0.11292536  0.09840273    -0.19700
F2286       F  0.68093258  0.10496322  0.03213733    -0.19700
F2287       F  0.69154197  0.16124327  0.04101973    -0.20000
F2288       F  0.65815237  0.12585037  0.06128438    -0.22700
C2289       C  0.73042705  0.42163654  0.06802874    -0.05600
C2290       C  0.75917272  0.41554008  0.05474339     0.00400
C2291       C  0.78466864  0.38920927  0.05962287    -0.08200
C2292       C  0.77965500  0.36883662  0.07756722    -0.05600
C2293       C  0.75112261  0.37535629  0.09107691     0.00400
C2294       C  0.72678900  0.40321423  0.08664891    -0.08100
C2295       C  0.69905149  0.41602428  0.10196824     0.62300
H2296       H  0.71181131  0.44260585  0.06413729     0.13000
H2297       H  0.79848143  0.34805183  0.08141621     0.13000
C2298       C  0.81767033  0.38384387  0.04645649     0.62500
F2299       F  0.68671234  0.44965098  0.09697076    -0.22700
F2300       F  0.71361558  0.41787064  0.12131749    -0.20000
F2301       F  0.67020788  0.39337571  0.10224939    -0.19700
F2302       F  0.83628196  0.41541190  0.04477956    -0.19700
F2303       F  0.80805144  0.37284058  0.02716666    -0.20000
F2304       F  0.84024904  0.35850187  0.05472310    -0.22700
C2305       C  0.77424094  0.08258492  0.93474732    -0.05600
C2306       C  0.74452038  0.08929088  0.94721270     0.00400
C2307       C  0.71949912  0.11539803  0.94142486    -0.08200
C2308       C  0.72538700  0.13445276  0.92317054    -0.05600
C2309       C  0.75451595  0.12708742  0.91024687     0.00400
C2310       C  0.77935353  0.10032462  0.91597076    -0.08100
C2311       C  0.80977759  0.08851127  0.90211828     0.62300
H2312       H  0.79256256  0.06188872  0.93948854     0.13000
H2313       H  0.70654495  0.15473083  0.91854312     0.13000
C2314       C  0.68595097  0.12177727  0.95396010     0.62500
F2315       F  0.82417005  0.05645333  0.90854953    -0.22700
F2316       F  0.83668226  0.11342135  0.90229770    -0.20000
F2317       F  0.79786949  0.08398348  0.88233280    -0.19700
F2318       F  0.69483045  0.13377135  0.97317067    -0.19700
F2319       F  0.66695344  0.09048993  0.95594136    -0.20000
F2320       F  0.66400498  0.14684106  0.94488962    -0.22700
C2321       C  0.77436967  0.36887189  0.92397823    -0.05600
C2322       C  0.74522599  0.37539594  0.91103744     0.00400
C2323       C  0.72079714  0.40290746  0.91611594    -0.08200
C2324       C  0.72645438  0.42245611  0.93404237    -0.05600
C2325       C  0.75590947  0.41637617  0.94664642     0.00400
C2326       C  0.78030399  0.38906038  0.94170004    -0.08100
C2327       C  0.81316290  0.38231599  0.95458392     0.62300
H2328       H  0.79292829  0.34803573  0.91988144     0.13000
H2329       H  0.70828621  0.44361726  0.93818407     0.13000
C2330       C  0.68968576  0.41314618  0.90253483     0.62500
F2331       F  0.83408432  0.35538911  0.94669892    -0.22700
F2332       F  0.80336151  0.37248513  0.97422910    -0.20000
F2333       F  0.83353679  0.41282268  0.95530878    -0.19700
F2334       F  0.66312815  0.38800257  0.90442135    -0.19700
F2335       F  0.70065313  0.41595135  0.88233411    -0.20000
F2336       F  0.67519913  0.44558347  0.90797002    -0.22700
C2337       C  0.52795984  0.18712931  0.73828926    -0.05600
C2338       C  0.99957690  0.22261631  0.73388216     0.00400
C2339       C  0.97331595  0.21477474  0.71840388    -0.08200
C2340       C  0.97440717  0.18122181  0.70871935    -0.05600
C2341       C  0.00192902  0.15661175  0.71179481     0.00400
C2342       C  0.52926645  0.15438453  0.72810604    -0.08100
C2343       C  0.56183696  0.13065544  0.73058673     0.62300
H2344       H  0.55062053  0.19367162  0.74739334     0.13000
H2345       H  0.95423653  0.17433504  0.69773303     0.13000
C2346       C  0.94577788  0.24136532  0.71018725     0.62500
F2347       F  0.58537361  0.14359447  0.74491302    -0.22700
F2348       F  0.57995632  0.12849706  0.71214829    -0.20000
F2349       F  0.55152260  0.09704846  0.73691530    -0.19700
F2350       F  0.92523391  0.25590362  0.72544570    -0.19700
F2351       F  0.92230172  0.22570696  0.69675655    -0.20000
F2352       F  0.96280134  0.26817037  0.69942662    -0.22700
C2353       C  0.96897259  0.31468239  0.73657442    -0.05600
C2354       C  0.99763017  0.29011806  0.73468954     0.00400
C2355       C  0.52543241  0.28681856  0.72131981    -0.08200
C2356       C  0.52668917  0.32133496  0.71251510    -0.05600
C2357       C  0.99926183  0.35943320  0.71621260     0.00400
C2358       C  0.96977421  0.34918609  0.72835285    -0.08100
C2359       C  0.93910654  0.37450112  0.73302094     0.62300
H2360       H  0.94529918  0.30754748  0.74491829     0.13000
H2361       H  0.54850669  0.32870179  0.70248839     0.13000
C2362       C  0.55327363  0.26030139  0.71348425     0.62500
F2363       F  0.91744846  0.36187998  0.74870462    -0.22700
F2364       F  0.91828575  0.37882074  0.71581708    -0.20000
F2365       F  0.95207862  0.40714442  0.73899482    -0.19700
F2366       F  0.57316089  0.24588699  0.72907137    -0.19700
F2367       F  0.57730066  0.27591952  0.69999441    -0.20000
F2368       F  0.53668952  0.23360303  0.70283691    -0.22700
C2369       C  0.55525233  0.27506985  0.76509412    -0.05600
C2370       C  0.53081677  0.24628815  0.76653938     0.00400
C2371       C  0.53868930  0.21995845  0.78228436    -0.08200
C2372       C  0.57221955  0.22097067  0.79214995    -0.05600
C2373       C  0.59712692  0.24799529  0.78866985     0.00400
C2374       C  0.58826816  0.27579983  0.77506013    -0.08100
C2375       C  0.61401256  0.30600815  0.77043457     0.62300
H2376       H  0.54906300  0.29796895  0.75595824     0.13000
H2377       H  0.57897157  0.20105677  0.80349496     0.13000
C2378       C  0.51233353  0.19202619  0.79040978     0.62500
F2379       F  0.60309753  0.32675185  0.75403631    -0.22700
F2380       F  0.64724113  0.29244347  0.76557926    -0.20000
F2381       F  0.61653820  0.32767768  0.78730489    -0.19700
F2382       F  0.49951323  0.17089096  0.77509524    -0.19700
F2383       F  0.48442563  0.20846636  0.80040940    -0.20000
F2384       F  0.52773215  0.16925620  0.80456313    -0.22700
C2385       C  0.93866465  0.22806056  0.76213982    -0.05600
C2386       C  0.96457918  0.25520934  0.76405583     0.00400
C2387       C  0.95756438  0.28142772  0.77985476    -0.08200
C2388       C  0.92392480  0.28142423  0.78982867    -0.05600
C2389       C  0.89787668  0.25586049  0.78616656     0.00400
C2390       C  0.90548511  0.22846184  0.77222727    -0.08100
C2391       C  0.87828751  0.19986770  0.76744360     0.62300
H2392       H  0.94378446  0.20583821  0.75241266     0.13000
H2393       H  0.91791857  0.30092576  0.80139983     0.13000
C2394       C  0.98468995  0.30847192  0.78780316     0.62500
F2395       F  0.88791011  0.18034491  0.75042298    -0.22700
F2396       F  0.84552465  0.21520962  0.76347718    -0.20000
F2397       F  0.87521901  0.17669773  0.78388002    -0.19700
F2398       F  0.99967181  0.32859158  0.77235293    -0.19700
F2399       F  0.01114100  0.29116331  0.79853932    -0.20000
F2400       F  0.96934331  0.33241072  0.80120954    -0.22700
C2401       C  0.82906421  0.97748344  0.71409001    -0.05600
C2402       C  0.85317449  0.00538270  0.71630613     0.00400
C2403       C  0.84193559  0.53361499  0.72764048    -0.08200
C2404       C  0.81090503  0.53090272  0.73951307    -0.05600
C2405       C  0.78406967  0.00647789  0.73624370     0.00400
C2406       C  0.79500296  0.97696611  0.72346903    -0.08100
C2407       C  0.77463169  0.94272793  0.71920719     0.62300
H2408       H  0.83697242  0.95534731  0.70460408     0.13000
H2409       H  0.80674691  0.55243669  0.74977430     0.13000
C2410       C  0.86404016  0.56758327  0.72841837     0.62500
F2411       F  0.79053097  0.91507661  0.72981497    -0.22700
F2412       F  0.77635510  0.93537795  0.69849324    -0.20000
F2413       F  0.74355868  0.43769266  0.72231620    -0.19700
F2414       F  0.87480900  0.08487737  0.71684651    -0.19700
F2415       F  0.89885686  0.55964118  0.73350322    -0.20000
F2416       F  0.85121439  0.59143516  0.74270165    -0.22700
C2417       C  0.71670041  0.50241820  0.71681979    -0.05600
C2418       C  0.71294102  0.01024753  0.73613767     0.00400
C2419       C  0.67721481  0.01503761  0.74463357    -0.08200
C2420       C  0.64771327  0.01140519  0.73164628    -0.05600
C2421       C  0.65124886  0.00451274  0.71092548     0.00400
C2422       C  0.68628791  0.49836687  0.70453471    -0.08100
C2423       C  0.69013813  0.48842419  0.68216209     0.62300
H2424       H  0.74223988  0.50018636  0.70940785     0.13000
H2425       H  0.62084652  0.01458978  0.73747789     0.13000
C2426       C  0.66810822  0.02521252  0.76677685     0.62500
F2427       F  0.72541796  0.48724590  0.67591577    -0.22700
F2428       F  0.67261917  0.51291734  0.66995946    -0.20000
F2429       F  0.67549455  0.45520329  0.67923468    -0.19700
F2430       F  0.67662094  0.06033504  0.77002395    -0.19700
F2431       F  0.68509500  0.00383840  0.78081778    -0.20000
F2432       F  0.63207200  0.02198638  0.77105849    -0.22700
C2433       C  0.74772652  0.04219911  0.78400405    -0.05600
C2434       C  0.74682584  0.04385207  0.76227017     0.00400
C2435       C  0.74459599  0.07916730  0.75305968    -0.08200
C2436       C  0.74829069  0.10899734  0.76569417    -0.05600
C2437       C  0.75118197  0.10610059  0.78678678     0.00400
C2438       C  0.74975275  0.07252021  0.79632455    -0.08100
C2439       C  0.75014988  0.06884394  0.81950645     0.62300
H2440       H  0.74692647  0.01687058  0.79171488     0.13000
H2441       H  0.74750786  0.13560892  0.75929800     0.13000
C2442       C  0.73650373  0.08743152  0.73050953     0.62500
F2443       F  0.74935640  0.03368752  0.82586403    -0.22700
F2444       F  0.72070867  0.08569758  0.82775930    -0.20000
F2445       F  0.78069106  0.08412900  0.82713771    -0.19700
F2446       F  0.70115866  0.08048141  0.72653832    -0.19700
F2447       F  0.75791849  0.06856127  0.71734653    -0.20000
F2448       F  0.74186816  0.12290666  0.72565465    -0.22700
C2449       C  0.71999919  0.44462741  0.76224006    -0.05600
C2450       C  0.74821474  0.46942574  0.76558156     0.00400
C2451       C  0.77494928  0.45757689  0.78002134    -0.08200
C2452       C  0.77058684  0.42462460  0.79029874    -0.05600
C2453       C  0.74192684  0.40169752  0.78697499     0.00400
C2454       C  0.71653729  0.41154813  0.77218022    -0.08100
C2455       C  0.68607368  0.38727074  0.76602864     0.62300
H2456       H  0.70007106  0.44992566  0.75101336     0.13000
H2457       H  0.79065632  0.41637939  0.80121209     0.13000
C2458       C  0.80969007  0.47589784  0.78562141     0.62500
F2459       F  0.67106451  0.39744414  0.74757901    -0.22700
F2460       F  0.65951617  0.38855253  0.78070169    -0.20000
F2461       F  0.69804128  0.35278097  0.76376678    -0.19700
F2462       F  0.81407255  0.50930053  0.77775725    -0.19700
F2463       F  0.83794344  0.45527007  0.77896943    -0.20000
F2464       F  0.81160539  0.47879883  0.80669225    -0.22700
C2465       C  0.62922773  0.27620643  0.07872190    -0.05600
C2466       C  0.62622659  0.24555357  0.09110543     0.00400
C2467       C  0.60162100  0.21860074  0.08547296    -0.08200
C2468       C  0.58231080  0.22299447  0.06727533    -0.05600
C2469       C  0.58491949  0.25386244  0.05530023     0.00400
C2470       C  0.60840348  0.28116650  0.06110054    -0.08100
C2471       C  0.61023444  0.31589510  0.04919610     0.62300
H2472       H  0.64762653  0.29678232  0.08320507     0.13000
H2473       H  0.56369434  0.20275978  0.06254743     0.13000
C2474       C  0.59367280  0.18604935  0.09864682     0.62500
F2475       F  0.57693824  0.33162030  0.04888270    -0.22700
F2476       F  0.62131465  0.30962401  0.02934513    -0.20000
F2477       F  0.63379634  0.33956932  0.05785350    -0.19700
F2478       F  0.59085197  0.19514104  0.11904942    -0.19700
F2479       F  0.62020160  0.16105178  0.09598201    -0.20000
F2480       F  0.56172611  0.17042906  0.09332385    -0.22700
C2481       C  0.91282418  0.26794297  0.06344389    -0.05600
C2482       C  0.90705775  0.23659962  0.05261283     0.00400
C2483       C  0.88162592  0.21177818  0.05972258    -0.08200
C2484       C  0.86295973  0.21918147  0.07791804    -0.05600
C2485       C  0.87036162  0.24955700  0.08955019     0.00400
C2486       C  0.89601040  0.27441735  0.08225757    -0.08100
C2487       C  0.90797980  0.30635053  0.09450413     0.62300
H2488       H  0.93263377  0.28634893  0.05756007     0.13000
H2489       H  0.84345614  0.20037666  0.08368882     0.13000
C2490       C  0.87593582  0.17684246  0.04884412     0.62500
F2491       F  0.93994371  0.31988502  0.08720263    -0.22700
F2492       F  0.91315673  0.29700259  0.11478347    -0.20000
F2493       F  0.88281093  0.33300819  0.09308705    -0.19700
F2494       F  0.84965806  0.15656776  0.05821806    -0.19700
F2495       F  0.90723299  0.15746160  0.04894499    -0.20000
F2496       F  0.86587835  0.18309451  0.02883969    -0.22700
C2497       C  0.57669760  0.22805098  0.93418618    -0.05600
C2498       C  0.58466078  0.25620613  0.94728322     0.00400
C2499       C  0.61238778  0.28009106  0.94219253    -0.08200
C2500       C  0.63197554  0.27422536  0.92416948    -0.05600
C2501       C  0.62336940  0.24664368  0.91076601     0.00400
C2502       C  0.59457174  0.22363717  0.91548763    -0.08100
C2503       C  0.58063094  0.19647641  0.90045078     0.62300
H2504       H  0.55477767  0.21065625  0.93829856     0.13000
H2505       H  0.65362792  0.29192735  0.92005053     0.12200
C2506       C  0.61995076  0.31259634  0.95502818     0.62500
F2507       F  0.54740919  0.18382090  0.90624059    -0.22700
F2508       F  0.60352498  0.16784524  0.89949694    -0.20000
F2509       F  0.57726232  0.21169582  0.88120893    -0.19700
F2510       F  0.58951157  0.33311381  0.95662079    -0.19700
F2511       F  0.64657496  0.33347181  0.94645635    -0.20000
F2512       F  0.63073619  0.30242534  0.97436082    -0.22700
C2513       C  0.91614321  0.27260611  0.93529128    -0.05600
C2514       C  0.91553587  0.23916668  0.94472421     0.00400
C2515       C  0.89379426  0.21210183  0.93693204    -0.08200
C2516       C  0.87278765  0.21972949  0.91973902    -0.05600
C2517       C  0.87368982  0.25313162  0.90977866     0.00400
C2518       C  0.89597156  0.28025986  0.91776966    -0.08100
C2519       C  0.89969185  0.31691668  0.90813157     0.62300
H2520       H  0.93325221  0.29264819  0.94177695     0.13000
H2521       H  0.85594212  0.19909519  0.91367784     0.13000
C2522       C  0.89404887  0.17505478  0.94627251     0.62500
F2523       F  0.92734983  0.33598008  0.91659472    -0.22700
F2524       F  0.86886146  0.33606788  0.91142743    -0.20000
F2525       F  0.90670668  0.31420067  0.88740763    -0.19700
F2526       F  0.88401551  0.17645630  0.96663736    -0.19700
F2527       F  0.92795592  0.16087380  0.94483890    -0.20000
F2528       F  0.87087950  0.15247830  0.93641062    -0.22700
C2529       C  0.83104075  0.97587846  0.28721225    -0.05600
C2530       C  0.85463245  0.00414007  0.28385643     0.00400
C2531       C  0.84749018  0.52963590  0.26849987    -0.08200
C2532       C  0.81537425  0.52558122  0.25777992    -0.05600
C2533       C  0.78821757  0.99957783  0.26206184     0.00400
C2534       C  0.79874268  0.97201142  0.27640106    -0.08100
C2535       C  0.77899861  0.93692266  0.27997072     0.62300
H2536       H  0.83869407  0.95606148  0.29842593     0.13000
H2537       H  0.81062116  0.54479833  0.24594031     0.13000
C2538       C  0.87072841  0.56164912  0.26331207     0.62500
F2539       F  0.78860019  0.41333608  0.26254417    -0.22700
F2540       F  0.74699306  0.43915716  0.28265267    -0.20000
F2541       F  0.79140133  0.91873925  0.29700559    -0.19700
F2542       F  0.90633894  0.55232260  0.26277625    -0.19700
F2543       F  0.86744955  0.08718561  0.27527135    -0.20000
F2544       F  0.86542259  0.07117098  0.24244739    -0.22700
C2545       C  0.68184655  0.50297900  0.29533590    -0.05600
C2546       C  0.65021832  0.00267836  0.28538727     0.00400
C2547       C  0.65117842  0.00636197  0.26410221    -0.08200
C2548       C  0.68437974  0.00751249  0.25427189    -0.05600
C2549       C  0.71751089  0.00537472  0.26476859     0.00400
C2550       C  0.71588566  0.50672055  0.28598323    -0.08100
C2551       C  0.74481704  0.51811034  0.30095599     0.62300
H2552       H  0.67928337  0.50381824  0.31186773     0.13000
H2553       H  0.68445413  0.00881293  0.23787842     0.13000
C2554       C  0.61696614  0.00877162  0.25190622     0.62500
F2555       F  0.72991073  0.04360159  0.31604096    -0.22700
F2556       F  0.77178200  0.03946326  0.29273456    -0.20000
F2557       F  0.75808942  0.48877556  0.31120422    -0.19700
F2558       F  0.59741266  0.03784019  0.25831436    -0.19700
F2559       F  0.60156786  0.46647030  0.25400094    -0.20000
F2560       F  0.62645005  0.49951715  0.22907440    -0.22700
C2561       C  0.74591035  0.07324766  0.20519574    -0.05600
C2562       C  0.75129340  0.10393391  0.21658517     0.00400
C2563       C  0.75238275  0.10165840  0.23793745    -0.08200
C2564       C  0.74945756  0.06816927  0.24723441    -0.05600
C2565       C  0.74805940  0.03571775  0.23619058     0.00400
C2566       C  0.74162551  0.03930128  0.21437328    -0.08100
C2567       C  0.72864503  0.01087115  0.19953269     0.62300
H2568       H  0.74389116  0.07630984  0.18872761     0.13000
H2569       H  0.75029286  0.06705595  0.26363158     0.13000
C2570       C  0.75713854  0.13465402  0.25082614     0.62500
F2571       F  0.70681849  0.02612236  0.18485899    -0.22700
F2572       F  0.70836011  0.98472662  0.20857636    -0.20000
F2573       F  0.75719376  0.99589109  0.18935321    -0.19700
F2574       F  0.72869452  0.15742319  0.24782703    -0.19700
F2575       F  0.78828756  0.15173704  0.24513911    -0.20000
F2576       F  0.75910466  0.12667461  0.27151232    -0.22700
C2577       C  0.72678308  0.43595701  0.24151178    -0.05600
C2578       C  0.75356503  0.46199528  0.23723716     0.00400
C2579       C  0.78058648  0.45178236  0.22248359    -0.08200
C2580       C  0.77658460  0.41949607  0.21180455    -0.05600
C2581       C  0.74926966  0.39521680  0.21605031     0.00400
C2582       C  0.72520439  0.40265416  0.23205031    -0.08100
C2583       C  0.69844798  0.37571316  0.24036374     0.62300
H2584       H  0.70733593  0.43997432  0.25338882     0.13000
H2585       H  0.79575876  0.41224458  0.20013595     0.13000
C2586       C  0.81541378  0.47179750  0.21841538     0.62500
F2587       F  0.69439838  0.37933193  0.26132568    -0.22700
F2588       F  0.70924225  0.34111581  0.23705305    -0.20000
F2589       F  0.66582373  0.38138321  0.23124418    -0.19700
F2590       F  0.83849478  0.46600444  0.23444890    -0.19700
F2591       F  0.81004407  0.50761315  0.21565135    -0.20000
F2592       F  0.83253695  0.46010329  0.20087171    -0.22700
C2593       C  0.75146480  0.00092710  0.25018746    -0.02300
N2594       N  0.55396244  0.75153015  0.00102332    -0.36400
N2595       N  0.99419622  0.75871721  0.03214165    -0.56900
N2596       N  0.93982498  0.75568500  0.00053751    -0.36400
N2597       N  0.99478690  0.76528975  0.96905721    -0.56900
C2598       C  0.57259565  0.76162234  0.01761001     0.27200
C2599       C  0.57286740  0.76148379  0.98425981     0.27200
C2600       C  0.91922121  0.74850493  0.01708543     0.27200
C2601       C  0.91974190  0.75030459  0.98378516     0.27200
C2602       C  0.52820431  0.74416795  0.04452554     0.35800
C2603       C  0.96545718  0.75420836  0.04441770     0.35800
C2604       C  0.52908183  0.74368100  0.95765823     0.35800
C2605       C  0.96655909  0.76060754  0.95669329     0.35800
C2606       C  0.60412334  0.77758222  0.01132691    -0.21700
C2607       C  0.60427285  0.77754652  0.99025500    -0.21700
C2608       C  0.88531861  0.73921268  0.01079215    -0.21700
C2609       C  0.88565240  0.74032072  0.98978173    -0.21700
C2610       C  0.51875336  0.73621524  0.06459238    -0.22700
C2611       C  0.97590104  0.75325324  0.06473306    -0.22700
C2612       C  0.52011312  0.73536181  0.93772511    -0.22700
C2613       C  0.97762831  0.76137913  0.93638836    -0.22700
C2614       C  0.56256044  0.75555551  0.03824143    -0.18100
C2615       C  0.56322563  0.75514485  0.96372978    -0.18100
C2616       C  0.93110952  0.75381267  0.96319411    -0.18100
C2617       C  0.92994283  0.74985099  0.03775834    -0.18100
H2618       H  0.62487166  0.78814280  0.02092655     0.14800
H2619       H  0.62516443  0.78808474  0.98046454     0.14800
H2620       H  0.86279421  0.73182944  0.02033444     0.14800
H2621       H  0.86340379  0.73399826  0.98003540     0.14800
H2622       H  0.53571808  0.73586558  0.07790641     0.13100
H2623       H  0.95935801  0.75041550  0.07825618     0.13100
H2624       H  0.53750487  0.73421291  0.92447196     0.13100
H2625       H  0.96159067  0.75835823  0.92283643     0.13100
H2626       H  0.53161389  0.73543412  0.00113289     0.26400
H2627       H  0.96519919  0.76616823  0.00072127     0.26400
C2628       C  0.74980186  0.50477759  0.75177066    -0.02300
C2629       C  0.50171459  0.74707059  0.75007312    -0.02300
N2630       N  0.73749155  0.94513567  0.00101359    -0.36400
N2631       N  0.76165707  0.50550804  0.97012941    -0.56900
N2632       N  0.75697650  0.56010677  0.00106998    -0.36400
N2633       N  0.76082613  0.50492709  0.03150871    -0.56900
C2634       C  0.74762430  0.92692250  0.98421882     0.27200
C2635       C  0.74855814  0.92657182  0.01754612     0.27200
C2636       C  0.74716282  0.57879606  0.98434074     0.27200
C2637       C  0.74542033  0.57811796  0.01763915     0.27200
C2638       C  0.72869442  0.97211374  0.95899310     0.35800
C2639       C  0.76682364  0.53486304  0.95851026     0.35800
C2640       C  0.73140029  0.97100616  0.04354176     0.35800
C2641       C  0.76461926  0.53382939  0.04334825     0.35800
C2642       C  0.76465057  0.89583682  0.99014144    -0.21700
C2643       C  0.76509844  0.89554308  0.01127517    -0.21700
C2644       C  0.73002341  0.60972591  0.99027962    -0.21700
C2645       C  0.72881593  0.60923777  0.01138475    -0.21700
C2646       C  0.71546605  0.98277312  0.94017046    -0.22700
C2647       C  0.77918644  0.52548748  0.93923575    -0.22700
C2648       C  0.71948430  0.98069084  0.06284702    -0.22700
C2649       C  0.77825118  0.52423234  0.06225316    -0.22700
C2650       C  0.74062921  0.93758141  0.96384852    -0.18100
C2651       C  0.74236176  0.93652623  0.03803264    -0.18100
C2652       C  0.75136151  0.56771831  0.03814753    -0.18100
C2653       C  0.75488922  0.56909407  0.96398674    -0.18100
H2654       H  0.77556808  0.87553003  0.98029613     0.14800
H2655       H  0.77638880  0.87496257  0.02091215     0.14800
H2656       H  0.71950574  0.63043885  0.98044414     0.14800
H2657       H  0.71724990  0.62952411  0.02100422     0.14800
H2658       H  0.70896119  0.96611203  0.92732246     0.13100
H2659       H  0.78446904  0.54296360  0.92633359     0.13100
H2660       H  0.71406733  0.96341165  0.07581812     0.13100
H2661       H  0.78301112  0.54131454  0.07517602     0.13100
H2662       H  0.72092826  0.96730402  0.00127660     0.26400
H2663       H  0.77379225  0.53814938  0.00111606     0.26400
C2664       C  0.84825969  0.75813268  0.89035495     0.42700
N2665       N  0.82321959  0.74205860  0.86257272     0.01600
C2666       C  0.71484902  0.85362483  0.80567358    -0.06300
H2667       H  0.68814711  0.84916079  0.88217766     0.07100
C2668       C  0.66165975  0.72354109  0.88109077    -0.06700
Co2669     Co  0.79360421  0.80402873  0.83969181     0.74200
N2670       N  0.72879239  0.82808616  0.86238716    -0.25800
Co2671     Co  0.70147385  0.79939916  0.84061114     0.74100
C2672       C  0.65140024  0.75565395  0.89201905     0.42800
N2673       N  0.73601048  0.68282795  0.86438533     0.01200
N2674       N  0.67651807  0.77024478  0.86365381     0.01300
N2675       N  0.77486888  0.85603304  0.80504426    -0.46700
H2676       H  0.84223079  0.81735608  0.88172727     0.07100
N2677       N  0.76385535  0.82960861  0.86250809     0.01600
N2678       N  0.67475480  0.76876498  0.81896588     0.01300
C2679       C  0.63660105  0.75141869  0.79677697     0.42900
N2680       N  0.77104331  0.68399029  0.86366451    -0.25300
C2681       C  0.84584898  0.78839931  0.80331426    -0.06200
N2682       N  0.83870614  0.72969856  0.87928399    -0.46400
N2683       N  0.65065190  0.78031982  0.80580433    -0.46600
C2684       C  0.86277578  0.75659656  0.79477586     0.42700
N2685       N  0.76326183  0.83079387  0.81768444     0.01600
N2686       N  0.77064589  0.68160835  0.81929086    -0.25300
N2687       N  0.82227521  0.77699577  0.86189393    -0.25800
N2688       N  0.73553023  0.67933389  0.81987427     0.01200
H2689       H  0.81115180  0.64970305  0.80474018     0.07100
H2690       H  0.64776065  0.69263492  0.80423229     0.07100
N2691       N  0.72817193  0.82877681  0.81820601    -0.25900
N2692       N  0.67786358  0.73529118  0.86398606    -0.25500
N2693       N  0.82416463  0.74128693  0.81781113     0.01600
C2694       C  0.74733742  0.85622939  0.88991173     0.43000
C2695       C  0.78387557  0.66725538  0.88018685    -0.06700
N2696       N  0.67690488  0.73376423  0.81944279    -0.25500
H2697       H  0.65858224  0.69604382  0.88558813     0.07100
N2698       N  0.77612335  0.84651000  0.87872290    -0.46700
H2699       H  0.81171555  0.66296163  0.88327446     0.07100
C2700       C  0.75194511  0.63827500  0.79930932     0.42800
C2701       C  0.83863327  0.78961269  0.87842658    -0.06200
Co2702     Co  0.79788691  0.71181209  0.84065951     0.73800
N2703       N  0.72372612  0.66656419  0.88101633    -0.46400
C2704       C  0.74584739  0.87121926  0.79645066     0.43100
N2705       N  0.84801424  0.72863525  0.80475098    -0.46400
Co2706     Co  0.70600930  0.70730331  0.84179497     0.73900
C2707       C  0.65394043  0.72048046  0.80594991    -0.06700
C2708       C  0.71597942  0.84507436  0.87874949    -0.06300
N2709       N  0.82247725  0.77633101  0.81737954    -0.25800
N2710       N  0.66062434  0.78348644  0.88003738    -0.46600
H2711       H  0.68716618  0.86133540  0.80531389     0.07100
C2712       C  0.78340116  0.65674188  0.80660545    -0.06700
Cl2713     Cl  0.74975653  0.75564108  0.84041914    -0.49700
C2714       C  0.75241835  0.65686306  0.89202844     0.42800
H2715       H  0.85271241  0.81599603  0.80085770     0.07000
N2716       N  0.72328357  0.65348601  0.80823468    -0.46400
C2717       C  0.74477900  0.86238241  0.20730703     0.42700
N2718       N  0.75987185  0.82492892  0.18408644     0.01600
C2719       C  0.65436120  0.72147170  0.12283055    -0.06300
H2720       H  0.64192219  0.69049886  0.19996871     0.07100
C2721       C  0.77804265  0.65322368  0.19575232    -0.06700
Co2722     Co  0.69673097  0.79613891  0.16225514     0.74200
N2723       N  0.67201326  0.73068728  0.18423215    -0.25800
Co2724     Co  0.69947024  0.70375826  0.16127685     0.74100
C2725       C  0.74691578  0.63619372  0.20497794     0.42800
N2726       N  0.81906739  0.73492929  0.18217390     0.01200
N2727       N  0.72976591  0.67502157  0.18274002     0.01300
N2728       N  0.65497041  0.78136825  0.12316426    -0.46700
H2729       H  0.68523763  0.85463824  0.20039081     0.07100
N2730       N  0.67074045  0.76571154  0.18453263     0.01600
N2731       N  0.72807087  0.67903752  0.13792887     0.01300
C2732       C  0.74330222  0.65390942  0.10989828     0.42900
N2733       N  0.81794880  0.76996300  0.18270566    -0.25300
C2734       C  0.71086245  0.84222630  0.12360115    -0.06200
N2735       N  0.77284557  0.84778940  0.19737060    -0.46400
N2736       N  0.71502331  0.66329611  0.12154403    -0.46600
C2737       C  0.74217261  0.85218845  0.11154280     0.42700
N2738       N  0.67045061  0.76780381  0.13963835     0.01600
N2739       N  0.81592173  0.77246800  0.13845809    -0.25300
N2740       N  0.72475778  0.82394150  0.18435185    -0.25800
N2741       N  0.81622095  0.73760675  0.13743935     0.01200
H2742       H  0.83746243  0.81378824  0.11961681     0.07100
H2743       H  0.80289483  0.65993221  0.11709305     0.07100
N2744       N  0.67093097  0.73280928  0.13963062    -0.25900
N2745       N  0.76487775  0.67683003  0.18229560    -0.25500
N2746       N  0.75875250  0.82563529  0.13913551     0.01600
C2747       C  0.63449609  0.74935896  0.20836654     0.43000
C2748       C  0.84183722  0.78119702  0.19632534    -0.06700
N2749       N  0.76313946  0.68004128  0.13779670    -0.25500
H2750       H  0.80586278  0.64640373  0.19739877     0.07100
N2751       N  0.64838927  0.77789317  0.19854759    -0.46700
H2752       H  0.84955719  0.80852102  0.19860399     0.07100
C2753       C  0.84214291  0.75519039  0.10973878     0.42800
C2754       C  0.71277649  0.84695265  0.19833724    -0.06200
Co2755     Co  0.78871523  0.79886226  0.16126036     0.73800
N2756       N  0.84283878  0.72132082  0.19488018    -0.46400
C2757       C  0.64499656  0.75372269  0.11152572     0.43100
N2758       N  0.77092032  0.84184925  0.12242505    -0.46400
Co2759     Co  0.79142633  0.70683074  0.16001173     0.73900
C2760       C  0.77521266  0.66385617  0.12099645    -0.06700
C2761       C  0.64986528  0.71796015  0.19864557    -0.06300
N2762       N  0.72372642  0.82499864  0.13993572    -0.25800
N2763       N  0.71797408  0.65048029  0.19580559    -0.46600
H2764       H  0.65044666  0.69403261  0.11886095     0.07100
C2765       C  0.83269978  0.78593169  0.12207013    -0.06700
Cl2766     Cl  0.74409260  0.75136171  0.16141101    -0.49700
C2767       C  0.85783915  0.74884163  0.20464734     0.42800
H2768       H  0.68304914  0.84719442  0.12092173     0.07000
N2769       N  0.83183271  0.72613675  0.12053892    -0.46400
C2770       C  0.00389518  0.89240087  0.70422844     0.42700
N2771       N  0.98818458  0.93206403  0.68223861     0.01600
C2772       C  0.58841490  0.53257074  0.62045549    -0.06300
H2773       H  0.60604287  0.56068098  0.69537647     0.07100
C2774       C  0.96610986  0.60320557  0.69354542    -0.06700
Co2775     Co  0.54966380  0.95520939  0.65729704     0.74200
N2776       N  0.57525684  0.51936069  0.68131586    -0.25800
Co2777     Co  0.54462957  0.54611590  0.65957950     0.74100
C2778       C  0.99815015  0.62045531  0.70162719     0.42800
N2779       N  0.92492850  0.51960179  0.68134205     0.01200
N2780       N  0.51559328  0.57252831  0.68218545     0.01300
N2781       N  0.59024665  0.97758964  0.61803913    -0.46700
H2782       H  0.56572362  0.89119171  0.69365020     0.07100
N2783       N  0.57728983  0.98504237  0.67898416     0.01600
N2784       N  0.51341137  0.57121734  0.63725841     0.01300
C2785       C  0.99335621  0.60285703  0.60707446     0.42900
N2786       N  0.92894904  0.98484871  0.68295418    -0.25300
C2787       C  0.53459439  0.91107077  0.61872728    -0.06200
N2788       N  0.97578539  0.90811293  0.69528345    -0.46400
N2789       N  0.52449832  0.58787742  0.62041203    -0.46600
C2790       C  0.00149937  0.89913757  0.61219180     0.42700
N2791       N  0.57231940  0.98751827  0.63458769     0.01600
N2792       N  0.92781783  0.98339779  0.63863102    -0.25300
N2793       N  0.52464297  0.92326551  0.67966966    -0.25800
N2794       N  0.92567291  0.51654605  0.63684820     0.01200
H2795       H  0.90892108  0.94158683  0.62048400     0.07100
H2796       H  0.93479742  0.59261732  0.61551783     0.07100
N2797       N  0.57235415  0.51916129  0.63705349    -0.25900
N2798       N  0.97810176  0.57951727  0.67982806    -0.25500
N2799       N  0.98627925  0.93105871  0.63783155     0.01600
C2800       C  0.61905940  0.50206043  0.70159928     0.43000
C2801       C  0.90550923  0.97240020  0.69684064    -0.06700
N2802       N  0.97683457  0.57553721  0.63550725    -0.25500
H2803       H  0.93840439  0.60949828  0.69634818     0.07100
N2804       N  0.60438857  0.97384101  0.69024971    -0.46700
H2805       H  0.89897782  0.94470271  0.69915750     0.07100
C2806       C  0.89690267  0.49714051  0.61073159     0.42800
C2807       C  0.53788914  0.89815427  0.69230135    -0.06200
Co2808     Co  0.95744999  0.95744452  0.66051213     0.73800
N2809       N  0.90003191  0.53198252  0.69376014    -0.46400
C2810       C  0.59965005  0.50194659  0.60854177     0.43100
N2811       N  0.97329169  0.91120367  0.62301664    -0.46400
Co2812     Co  0.95078040  0.54840596  0.65851354     0.73900
C2813       C  0.96283669  0.59120542  0.61905664    -0.06700
C2814       C  0.59972519  0.53282596  0.69387955    -0.06300
N2815       N  0.52187585  0.92741984  0.63531244    -0.25800
N2816       N  0.52841896  0.59608454  0.69511368    -0.46600
H2817       H  0.59092175  0.56048638  0.61710778     0.07100
C2818       C  0.91011542  0.96962625  0.62300099    -0.06700
Cl2819     Cl  0.99985729  0.50537731  0.65922077    -0.49700
C2820       C  0.88581083  0.50381953  0.70374197     0.42800
H2821       H  0.56249393  0.90913978  0.61486110     0.07000
N2822       N  0.90717406  0.52685595  0.62068713    -0.46400
C2823       C  0.61593134  0.49744019  0.29502761     0.42700
N2824       N  0.57712677  0.51068593  0.31816008     0.01600
C2825       C  0.96437323  0.91084809  0.37943368    -0.06300
H2826       H  0.94005191  0.89705251  0.30444930     0.07100
C2827       C  0.90658990  0.53723568  0.30526945    -0.06700
Co2828     Co  0.54818038  0.94570660  0.33922362     0.74200
N2829       N  0.98023470  0.92825934  0.31900702    -0.25800
Co2830     Co  0.95216572  0.95772027  0.34097809     0.74100
C2831       C  0.88989328  0.50589021  0.29629393     0.42800
N2832       N  0.98843020  0.57878323  0.31829013     0.01200
N2833       N  0.92635445  0.98805157  0.31858071     0.01300
N2834       N  0.53137896  0.89685275  0.37569614    -0.46700
H2835       H  0.60831705  0.93944797  0.30096869     0.07100
N2836       N  0.52009411  0.91980853  0.31607737     0.01600
N2837       N  0.92645307  0.98755388  0.36356035     0.01300
C2838       C  0.90524907  0.50771497  0.39203043     0.42900
N2839       N  0.52019576  0.56871094  0.32004242    -0.25300
C2840       C  0.59315664  0.95780495  0.37837447    -0.06200
N2841       N  0.60083338  0.52469250  0.30529292    -0.46400
N2842       N  0.91113303  0.97525785  0.38052309    -0.46600
C2843       C  0.60132448  0.49028064  0.39012615     0.42700
N2844       N  0.51875133  0.91652846  0.36050893     0.01600
N2845       N  0.52048723  0.56254752  0.36442174    -0.25300
N2846       N  0.57670552  0.97667154  0.31822414    -0.25800
N2847       N  0.98739827  0.57976345  0.36259665     0.01200
H2848       H  0.56029438  0.58503362  0.38401295     0.07100
H2849       H  0.91295202  0.56668716  0.38408084     0.07100
N2850       N  0.97804478  0.92863851  0.36342127    -0.25900
N2851       N  0.93011595  0.52464102  0.31881897    -0.25500
N2852       N  0.57489077  0.50686723  0.36283777     0.01600
C2853       C  0.99938898  0.88484441  0.29850325     0.43000
C2854       C  0.53145795  0.59522796  0.30769602    -0.06700
N2855       N  0.93073993  0.52600894  0.36332478    -0.25500
H2856       H  0.89926013  0.56481138  0.30413570     0.07100
N2857       N  0.53274485  0.89470419  0.30379874    -0.46700
H2858       H  0.55885250  0.60330016  0.30551762     0.07100
C2859       C  0.00200422  0.61321849  0.38745427     0.42800
C2860       C  0.60050937  0.96653444  0.30406443    -0.06200
Co2861     Co  0.54880588  0.53765448  0.34112209     0.73800
N2862       N  0.97568319  0.60279320  0.30539039    -0.46400
C2863       C  0.99513326  0.89643924  0.39015913     0.43100
N2864       N  0.59111304  0.51898066  0.37923815    -0.46400
Co2865     Co  0.95869162  0.55262234  0.34063666     0.73900
C2866       C  0.91547852  0.53896012  0.38024623    -0.06700
C2867       C  0.96784206  0.90388758  0.30606553    -0.06300
N2868       N  0.57482221  0.97145314  0.36263042    -0.25800
N2869       N  0.90234853  0.97636565  0.30551051    -0.46600
H2870       H  0.93662732  0.91075982  0.38365085     0.07100
C2871       C  0.53260925  0.58009075  0.38064260    -0.06700
Cl2872     Cl  0.00311218  0.50488060  0.34139654    -0.49700
C2873       C  0.00397985  0.61825782  0.29626817     0.42800
H2874       H  0.59736675  0.92990023  0.38155455     0.07000
N2875       N  0.97404808  0.60021144  0.37714273    -0.46400
N2876       N  0.50400638  0.68918268  0.50028292    -0.36400
N2877       N  0.52000839  0.74080980  0.46917427    -0.56900
N2878       N  0.51927827  0.79807140  0.49890092    -0.36400
N2879       N  0.50139386  0.74612636  0.53018130    -0.56900
C2880       C  0.49803942  0.66953039  0.48346375     0.27200
C2881       C  0.48873728  0.67213123  0.51630068     0.27200
C2882       C  0.51482933  0.81648786  0.48123054     0.27200
C2883       C  0.50889397  0.81935039  0.51442956     0.27200
C2884       C  0.52503809  0.71104593  0.45816261     0.35800
C2885       C  0.53133799  0.76810588  0.45735605     0.35800
C2886       C  0.50118580  0.71738606  0.54269746     0.35800
C2887       C  0.50919597  0.77414560  0.54211720     0.35800
C2888       C  0.47898627  0.63931614  0.48889823    -0.21700
C2889       C  0.47332472  0.64084760  0.50974477    -0.21700
C2890       C  0.50186168  0.85011363  0.48563067    -0.21700
C2891       C  0.49865057  0.85209449  0.50665721    -0.21700
C2892       C  0.54034057  0.71937785  0.43936494    -0.22700
C2893       C  0.54427974  0.75557880  0.43884141    -0.22700
C2894       C  0.50876144  0.72723720  0.56259472    -0.22700
C2895       C  0.51337388  0.76322175  0.56226799    -0.22700
C2896       C  0.51119912  0.67745287  0.46365994    -0.18100
C2897       C  0.49135831  0.68279611  0.53682867    -0.18100
C2898       C  0.50965751  0.80984288  0.53539104    -0.18100
C2899       C  0.52361630  0.80403379  0.46142154    -0.18100
H2900       H  0.47068585  0.61807708  0.47896615     0.14800
H2901       H  0.45979827  0.62106731  0.51905436     0.14800
H2902       H  0.49586470  0.87121051  0.47483759     0.14800
H2903       H  0.48937281  0.87481275  0.51521016     0.14800
H2904       H  0.54638902  0.70145950  0.42695445     0.13100
H2905       H  0.55378975  0.77111784  0.42590987     0.13100
H2906       H  0.50991340  0.71040906  0.57608324     0.13100
H2907       H  0.51885844  0.77948175  0.57543726     0.13100
H2908       H  0.52121575  0.71066526  0.50130233     0.26400
H2909       H  0.53169795  0.77348871  0.50048303     0.26400
N2910       N  0.69479086  0.01259091  0.49876766    -0.36400
N2911       N  0.74902032  0.01802294  0.53062055    -0.56900
N2912       N  0.80576406  0.01955686  0.50059732    -0.36400
N2913       N  0.75173484  0.01598272  0.46906273    -0.56900
C2914       C  0.67577904  0.02537796  0.51464797     0.27200
C2915       C  0.67682375  0.02123227  0.48159388     0.27200
C2916       C  0.82531118  0.01313009  0.51747439     0.27200
C2917       C  0.82608652  0.01089820  0.48423027     0.27200
C2918       C  0.71941593  0.01500415  0.54234067     0.35800
C2919       C  0.77677931  0.01601586  0.54360136     0.35800
C2920       C  0.72377259  0.02283864  0.45685625     0.35800
C2921       C  0.78100880  0.02458180  0.45806332     0.35800
C2922       C  0.64590371  0.04310766  0.50754429    -0.21700
C2923       C  0.64741624  0.04166173  0.48648535    -0.21700
C2924       C  0.85901162  0.00157293  0.51176262    -0.21700
C2925       C  0.85934194  0.99971264  0.49073128    -0.21700
C2926       C  0.72841222  0.01034358  0.56272566    -0.22700
C2927       C  0.76465478  0.01147840  0.56356198    -0.22700
C2928       C  0.73519886  0.03825396  0.43860199    -0.22700
C2929       C  0.77166510  0.03862957  0.43919836    -0.22700
C2930       C  0.68442467  0.02050841  0.53534860    -0.18100
C2931       C  0.68842122  0.01297994  0.46172716    -0.18100
C2932       C  0.81564264  0.01459149  0.46363040    -0.18100
C2933       C  0.81311150  0.01603503  0.53786715    -0.18100
H2934       H  0.62605093  0.05688915  0.51657501     0.14800
H2935       H  0.62978406  0.05511155  0.47595204     0.14800
H2936       H  0.88076504  0.99420990  0.52171229     0.14800
H2937       H  0.88155922  0.99121339  0.48133620     0.14800
H2938       H  0.71075623  0.00739807  0.57578417     0.13100
H2939       H  0.78025295  0.00873001  0.57734547     0.13100
H2940       H  0.71897103  0.04712531  0.42592436     0.13100
H2941       H  0.78934460  0.04714568  0.42696165     0.13100
H2942       H  0.71700179  0.99600229  0.49968059     0.26400
H2943       H  0.78095156  0.03176515  0.50018968     0.26400
C2944       C  0.49281200  0.74357548  0.24847804    -0.02300
C2945       C  0.96935965  0.84502287  0.27452882    -0.05600
C2946       C  0.99909684  0.85090133  0.28660017     0.00400
C2947       C  0.52702394  0.81669017  0.28553693    -0.08200
C2948       C  0.51968617  0.78434120  0.27554761    -0.05600
C2949       C  0.48989648  0.77866603  0.26245997     0.00400
C2950       C  0.96221731  0.81240575  0.26491618    -0.08100
C2951       C  0.92308828  0.80755950  0.25947565     0.62300
H2952       H  0.95035705  0.86651822  0.27340764     0.13000
H2953       H  0.53832097  0.76282056  0.27759298     0.13000
C2954       C  0.56060749  0.82002094  0.29817392     0.62500
F2955       F  0.90184504  0.83577591  0.26552148    -0.22700
F2956       F  0.90961203  0.77855353  0.26993876    -0.20000
F2957       F  0.91878491  0.80514650  0.23868855    -0.19700
F2958       F  0.55194813  0.82914390  0.31804089    -0.19700
F2959       F  0.58241128  0.84579312  0.28958460    -0.20000
F2960       F  0.57975479  0.78858892  0.29893197    -0.22700
C2961       C  0.00426676  0.65056162  0.26372538    -0.05600
C2962       C  0.00186779  0.65212150  0.28484688     0.00400
C2963       C  0.48625678  0.67943066  0.29654825    -0.08200
C2964       C  0.48546247  0.70936790  0.28335620    -0.05600
C2965       C  0.49304487  0.70755937  0.26199472     0.00400
C2966       C  0.00127157  0.68087070  0.25102410    -0.08100
C2967       C  0.00391799  0.67337695  0.22797164     0.62300
H2968       H  0.00850431  0.62448711  0.25730431     0.13000
H2969       H  0.47740484  0.73426495  0.28991640     0.13000
C2970       C  0.47693958  0.68307337  0.31906266     0.62500
F2971       F  0.00731219  0.63750985  0.22385305    -0.22700
F2972       F  0.03357813  0.68909062  0.21953445    -0.20000
F2973       F  0.97373649  0.68408620  0.21785102    -0.19700
F2974       F  0.50521392  0.67158749  0.33085150    -0.19700
F2975       F  0.44732593  0.66265453  0.32365551    -0.20000
F2976       F  0.46934373  0.71783284  0.32424054    -0.22700
C2977       C  0.52827063  0.60484161  0.42489168    -0.05600
C2978       C  0.99958618  0.63166512  0.40722747     0.00400
C2979       C  0.97849108  0.66242144  0.40997893    -0.08200
C2980       C  0.97991907  0.67986491  0.42883537    -0.05600
C2981       C  0.50645210  0.65127194  0.44706164     0.00400
C2982       C  0.53241684  0.62531325  0.44255113    -0.08100
C2983       C  0.56502485  0.62039570  0.45586307     0.62300
H2984       H  0.54809745  0.58501418  0.42113067     0.13000
H2985       H  0.96433716  0.70370147  0.43127489     0.13000
C2986       C  0.95643047  0.67811823  0.39274486     0.62500
F2987       F  0.58685827  0.59338186  0.44884785    -0.22700
F2988       F  0.55466910  0.61203862  0.47565896    -0.20000
F2989       F  0.58464421  0.65142302  0.45594558    -0.19700
F2990       F  0.92974115  0.65477252  0.38749609    -0.19700
F2991       F  0.97800729  0.68460271  0.37587843    -0.20000
F2992       F  0.94061454  0.70990654  0.39825231    -0.22700
C2993       C  0.97694008  0.83588683  0.43591593    -0.05600
C2994       C  0.51783969  0.82745459  0.44329113     0.00400
C2995       C  0.54325699  0.85230668  0.43619711    -0.08200
C2996       C  0.53645687  0.87090674  0.41784935    -0.05600
C2997       C  0.99616112  0.87927931  0.41058159     0.00400
C2998       C  0.97236502  0.85177747  0.41665071    -0.08100
C2999       C  0.94442910  0.83653540  0.40247417     0.62300
H3000       H  0.95940814  0.81463606  0.44090572     0.13000
H3001       H  0.55552954  0.89037675  0.41237170     0.13000
C3002       C  0.57804656  0.85776713  0.44740737     0.62500
F3003       F  0.93033878  0.80506575  0.41007901    -0.22700
F3004       F  0.95949514  0.82935887  0.38358087    -0.20000
F3005       F  0.91656592  0.86009954  0.40022131    -0.19700
F3006       F  0.59686228  0.82618832  0.44799445    -0.19700
F3007       F  0.57140777  0.86874382  0.46718040    -0.20000
F3008       F  0.59919160  0.88315774  0.43788217    -0.22700
C3009       C  0.68085029  0.98632737  0.42693860    -0.05600
C3010       C  0.66424673  0.99899396  0.44495462     0.00400
C3011       C  0.63924638  0.47768580  0.44290882    -0.08200
C3012       C  0.61605020  0.47715294  0.42611720    -0.05600
C3013       C  0.62634120  0.49145085  0.40715865     0.00400
C3014       C  0.66234528  0.98217002  0.40861061    -0.08100
C3015       C  0.68204813  0.97096537  0.38933597     0.62300
H3016       H  0.70889553  0.98006202  0.42710067     0.13000
H3017       H  0.59072990  0.46347355  0.42744310     0.13000
C3018       C  0.63249421  0.44992239  0.45952516     0.62500
F3019       F  0.71837560  0.96802223  0.39244476    -0.22700
F3020       F  0.65997700  0.54250982  0.37548258    -0.20000
F3021       F  0.66960199  0.93830920  0.38312370    -0.19700
F3022       F  0.60348549  0.45950592  0.47138817    -0.19700
F3023       F  0.62615969  0.97093356  0.47975664    -0.20000
F3024       F  0.62503847  0.41775800  0.45045159    -0.22700
C3025       C  0.86037339  0.97686432  0.41628583    -0.05600
C3026       C  0.88732317  0.50677507  0.41207723     0.00400
C3027       C  0.89705063  0.52922331  0.42839878    -0.08200
C3028       C  0.87353956  0.53252751  0.44508413    -0.05600
C3029       C  0.84170317  0.00775591  0.44696007     0.00400
C3030       C  0.83839654  0.97831732  0.43372014    -0.08100
C3031       C  0.81178025  0.94871660  0.43781521     0.62300
H3032       H  0.85617009  0.95639423  0.40502174     0.13000
H3033       H  0.87944725  0.55117636  0.45712883     0.13000
C3034       C  0.93201506  0.54939188  0.42890411     0.62500
F3035       F  0.81810256  0.91978418  0.42536648    -0.22700
F3036       F  0.77758914  0.96055792  0.43418878    -0.20000
F3037       F  0.81430446  0.93728065  0.45792150    -0.19700
F3038       F  0.92666122  0.58387342  0.42220455    -0.19700
F3039       F  0.95787490  0.53350878  0.41687577    -0.20000
F3040       F  0.94490826  0.55017510  0.44869083    -0.22700
C3041       C  0.63398525  0.04357185  0.58313347    -0.05600
C3042       C  0.61642411  0.50310720  0.58769026     0.00400
C3043       C  0.61657044  0.47420451  0.57379874    -0.08200
C3044       C  0.63615759  0.47739306  0.55539223    -0.05600
C3045       C  0.65572281  0.02130954  0.55088723     0.00400
C3046       C  0.65239789  0.04957926  0.56478704    -0.08100
C3047       C  0.66973696  0.08561382  0.56164988     0.62300
H3048       H  0.63336342  0.06480058  0.59417118     0.13000
H3049       H  0.63925658  0.45477272  0.54541189     0.13000
C3050       C  0.59659076  0.44006953  0.57810126     0.62500
F3051       F  0.65588293  0.60133371  0.56933605    -0.22700
F3052       F  0.65553231  0.58331529  0.53681000    -0.20000
F3053       F  0.69729266  0.08923458  0.57538929    -0.19700
F3054       F  0.56173727  0.44767073  0.58345767    -0.19700
F3055       F  0.61731767  0.92955256  0.59216501    -0.20000
F3056       F  0.60256123  0.92676893  0.55913747    -0.22700
C3057       C  0.86324125  0.53112303  0.58490562    -0.05600
C3058       C  0.87702685  0.49786839  0.59099540     0.00400
C3059       C  0.86452237  0.97234271  0.58018661    -0.08200
C3060       C  0.84647164  0.97847250  0.56177244    -0.05600
C3061       C  0.83910719  0.01263663  0.55468184     0.00400
C3062       C  0.84355916  0.53552052  0.56692024    -0.08100
C3063       C  0.82964399  0.57200169  0.56081405     0.62300
H3064       H  0.86756853  0.55395219  0.59449872     0.13000
H3065       H  0.83619029  0.95653419  0.55300232     0.13000
C3066       C  0.86924346  0.93406407  0.58692813     0.62500
F3067       F  0.85821842  0.10519703  0.57055752    -0.22700
F3068       F  0.80648473  0.08524042  0.55836300    -0.20000
F3069       F  0.84339580  0.58135389  0.54184152    -0.19700
F3070       F  0.85419687  0.92897584  0.60610868    -0.19700
F3071       F  0.92255043  0.43300322  0.58571426    -0.20000
F3072       F  0.88177709  0.40859030  0.56580213    -0.22700
C3073       C  0.96198359  0.64170628  0.58264278    -0.05600
C3074       C  0.99192973  0.62053098  0.58685955     0.00400
C3075       C  0.52145294  0.61428989  0.57484329    -0.08200
C3076       C  0.51812386  0.63454669  0.55684181    -0.05600
C3077       C  0.48815129  0.65561510  0.55320236     0.00400
C3078       C  0.95930410  0.66131848  0.56446213    -0.08100
C3079       C  0.92603435  0.68355194  0.56129327     0.62300
H3080       H  0.94086097  0.64408203  0.59392950     0.13000
H3081       H  0.53990286  0.63580565  0.54589463     0.13000
C3082       C  0.55484338  0.59236116  0.57782416     0.62500
F3083       F  0.89640563  0.66194106  0.56311590    -0.22700
F3084       F  0.92489455  0.69984363  0.54227236    -0.20000
F3085       F  0.92424120  0.70945068  0.57612673    -0.19700
F3086       F  0.54579204  0.55785274  0.58302025    -0.19700
F3087       F  0.57512287  0.60730885  0.59302886    -0.20000
F3088       F  0.57551644  0.59114639  0.56020602    -0.22700
C3089       C  0.53664251  0.86861784  0.57945048    -0.05600
C3090       C  0.99990926  0.87906390  0.59283719     0.00400
C3091       C  0.97360866  0.85300335  0.58902056    -0.08200
C3092       C  0.97481947  0.83492683  0.57031212    -0.05600
C3093       C  0.50859575  0.83768926  0.55146026     0.00400
C3094       C  0.53985309  0.84871680  0.56141168    -0.08100
C3095       C  0.57647215  0.83887635  0.55310141     0.62300
H3096       H  0.56068601  0.87609774  0.58718929     0.13000
H3097       H  0.95498170  0.81499901  0.56695890     0.13000
C3098       C  0.94630481  0.84193923  0.60513993     0.62500
F3099       F  0.60358101  0.85192898  0.56512245    -0.22700
F3100       F  0.58053979  0.85278228  0.53357446    -0.20000
F3101       F  0.58030666  0.80241448  0.55235943    -0.19700
F3102       F  0.92210945  0.86894124  0.60836232    -0.19700
F3103       F  0.96330046  0.83393787  0.62331958    -0.20000
F3104       F  0.92748696  0.81212445  0.59935559    -0.22700
C3105       C  0.57507946  0.77584303  0.21480913    -0.05600
C3106       C  0.60060094  0.75030933  0.22001882     0.00400
C3107       C  0.59393478  0.72768297  0.23678352    -0.08200
C3108       C  0.55968134  0.72734323  0.24536925    -0.05600
C3109       C  0.53080409  0.74854089  0.23798871     0.00400
C3110       C  0.54110975  0.77709867  0.22423652    -0.08100
C3111       C  0.52040932  0.81139833  0.22072798     0.62300
H3112       H  0.58236333  0.79562010  0.20341586     0.13000
H3113       H  0.55619438  0.71000556  0.25837306     0.13000
C3114       C  0.62297809  0.70476069  0.24631959     0.62500
F3115       F  0.52949755  0.82721806  0.20219155    -0.22700
F3116       F  0.52854792  0.83494198  0.23606121    -0.20000
F3117       F  0.48442193  0.80637798  0.22037296    -0.19700
F3118       F  0.65462278  0.72341941  0.24725065    -0.19700
F3119       F  0.62797561  0.67448159  0.23489941    -0.20000
F3120       F  0.61420401  0.69437999  0.26610432    -0.22700
C3121       C  0.92286305  0.75865959  0.20367135    -0.05600
C3122       C  0.89299774  0.74645625  0.21438284     0.00400
C3123       C  0.89723089  0.73103931  0.23376920    -0.08200
C3124       C  0.93088910  0.73245313  0.24288293    -0.05600
C3125       C  0.96167500  0.74787853  0.23336758     0.00400
C3126       C  0.95767708  0.75555671  0.21160637    -0.08100
C3127       C  0.98574777  0.75570831  0.19455418     0.62300
H3128       H  0.91911477  0.76797034  0.18806434     0.13000
H3129       H  0.93234879  0.72289348  0.25844016     0.13000
C3130       C  0.86570318  0.71513907  0.24531419     0.62500
F3131       F  0.97394729  0.73498715  0.17854216    -0.22700
F3132       F  0.01778793  0.74146501  0.19989190    -0.20000
F3133       F  0.99055191  0.78977045  0.18703300    -0.19700
F3134       F  0.85311580  0.68610603  0.23480673    -0.19700
F3135       F  0.83882460  0.74011764  0.24702182    -0.20000
F3136       F  0.87467961  0.70400436  0.26485896    -0.22700
C3137       C  0.76767864  0.62221969  0.05672552    -0.05600
C3138       C  0.74450145  0.59339201  0.05489177     0.00400
C3139       C  0.71662222  0.58862804  0.06941025    -0.08200
C3140       C  0.71589541  0.61037815  0.08680029    -0.05600
C3141       C  0.74129739  0.63711971  0.08956552     0.00400
C3142       C  0.76549409  0.64527562  0.07342433    -0.08100
C3143       C  0.78980569  0.67735510  0.07343925     0.62300
H3144       H  0.78803132  0.62635062  0.04509914     0.13000
H3145       H  0.69644977  0.60553027  0.09881767     0.13000
C3146       C  0.68776039  0.56094438  0.06652347     0.62500
F3147       F  0.79521770  0.68995193  0.05369340    -0.22700
F3148       F  0.82226624  0.66755525  0.08145047    -0.20000
F3149       F  0.77546288  0.70494752  0.08465797    -0.19700
F3150       F  0.70176663  0.52715120  0.06824909    -0.19700
F3151       F  0.67279830  0.56513020  0.04738027    -0.20000
F3152       F  0.66085709  0.56416270  0.08098720    -0.22700
C3153       C  0.71955442  0.88524423  0.05778684    -0.05600
C3154       C  0.74680425  0.90994434  0.05468278     0.00400
C3155       C  0.77532632  0.91160690  0.06863965    -0.08200
C3156       C  0.77307227  0.89153955  0.08682831    -0.05600
C3157       C  0.74398098  0.86912497  0.09095853     0.00400
C3158       C  0.71825985  0.86365674  0.07539542    -0.08100
C3159       C  0.68964169  0.83534508  0.07669582     0.62300
H3160       H  0.69851849  0.88377557  0.04655900     0.13000
H3161       H  0.79364830  0.89403250  0.09824372     0.13000
C3162       C  0.80805470  0.93406763  0.06414144     0.62500
F3163       F  0.67760967  0.82640955  0.05742862    -0.22700
F3164       F  0.66094421  0.84794116  0.08776968    -0.20000
F3165       F  0.70284037  0.80468526  0.08566326    -0.19700
F3166       F  0.79918219  0.96964528  0.06326324    -0.19700
F3167       F  0.82265920  0.92413824  0.04556567    -0.20000
F3168       F  0.83381883  0.92968189  0.07899374    -0.22700
C3169       C  0.77578802  0.62206529  0.94498258    -0.05600
C3170       C  0.74996160  0.59566629  0.94741721     0.00400
C3171       C  0.72151448  0.59348912  0.93342970    -0.08200
C3172       C  0.72281466  0.61475322  0.91567967    -0.05600
C3173       C  0.75056235  0.63908233  0.91226303     0.00400
C3174       C  0.77557974  0.64513747  0.92803360    -0.08100
C3175       C  0.80238997  0.67513366  0.92744007     0.62300
H3176       H  0.79660088  0.62415400  0.95631509     0.13000
H3177       H  0.70258075  0.61185436  0.90409637     0.13000
C3178       C  0.68967476  0.56957901  0.93756888     0.62500
F3179       F  0.81116032  0.68550265  0.94704401    -0.22700
F3180       F  0.78887820  0.70470072  0.91744127    -0.20000
F3181       F  0.83296356  0.66358509  0.91774990    -0.19700
F3182       F  0.67412932  0.57880148  0.95602200    -0.19700
F3183       F  0.69997526  0.53439601  0.93848912    -0.20000
F3184       F  0.66419400  0.57291149  0.92247746    -0.22700
C3185       C  0.77223952  0.90133115  0.91278893    -0.05600
C3186       C  0.74863185  0.87297703  0.91030267     0.00400
C3187       C  0.72672769  0.86211230  0.92705559    -0.08200
C3188       C  0.72613522  0.88297880  0.94478757    -0.05600
C3189       C  0.74796033  0.91286706  0.94665736     0.00400
C3190       C  0.77302202  0.92097674  0.93092497    -0.08100
C3191       C  0.79989377  0.95096360  0.93216728     0.62300
H3192       H  0.78974674  0.90880441  0.90020794     0.13000
H3193       H  0.70744401  0.87686669  0.95702836     0.13000
C3194       C  0.70315828  0.82945446  0.92648048     0.62500
F3195       F  0.83261717  0.93946040  0.92495635    -0.22700
F3196       F  0.80474222  0.96261758  0.95194969    -0.20000
F3197       F  0.78867322  0.97914390  0.92012021    -0.19700
F3198       F  0.71965487  0.80222346  0.91595280    -0.19700
F3199       F  0.67133627  0.83808260  0.91724125    -0.20000
F3200       F  0.69572084  0.81694615  0.94603751    -0.22700
C3201       C  0.52988730  0.68693943  0.73866450    -0.05600
C3202       C  0.00070262  0.72148955  0.73412363     0.00400
C3203       C  0.97353327  0.71377619  0.71908378    -0.08200
C3204       C  0.97322813  0.67986885  0.70990599    -0.05600
C3205       C  0.00035108  0.65487360  0.71275663     0.00400
C3206       C  0.52907618  0.65296593  0.72996912    -0.08100
C3207       C  0.55651224  0.62537512  0.73642989     0.62300
H3208       H  0.55240247  0.69256780  0.74807622     0.13000
H3209       H  0.95233110  0.67304213  0.69936963     0.13000
C3210       C  0.94596458  0.74053789  0.71101758     0.62500
F3211       F  0.57521769  0.63586206  0.75352894    -0.22700
F3212       F  0.58062040  0.61998597  0.72068945    -0.20000
F3213       F  0.53981573  0.59363631  0.74128495    -0.19700
F3214       F  0.92595483  0.75544546  0.72639348    -0.19700
F3215       F  0.92192027  0.72497960  0.69788040    -0.20000
F3216       F  0.96288164  0.76700834  0.69994330    -0.22700
C3217       C  0.97124360  0.81365534  0.73606674    -0.05600
C3218       C  0.99941993  0.78865595  0.73420910     0.00400
C3219       C  0.52937301  0.78651268  0.71917248    -0.08200
C3220       C  0.53022315  0.82013730  0.70929384    -0.05600
C3221       C  0.00120249  0.85706287  0.71446368     0.00400
C3222       C  0.97200619  0.84763840  0.72710271    -0.08100
C3223       C  0.94166527  0.87339789  0.73160285     0.62300
H3224       H  0.94792337  0.80718981  0.74487484     0.13000
H3225       H  0.55069127  0.82614142  0.69806893     0.13000
C3226       C  0.55718766  0.75933603  0.71189067     0.62500
F3227       F  0.91966489  0.86128812  0.74725688    -0.22700
F3228       F  0.92100295  0.87781113  0.71434303    -0.20000
F3229       F  0.95514228  0.90588064  0.73749140    -0.19700
F3230       F  0.57562049  0.74395152  0.72776188    -0.19700
F3231       F  0.58264614  0.77469599  0.69919601    -0.20000
F3232       F  0.54081322  0.73315414  0.70072746    -0.22700
C3233       C  0.55999889  0.77752883  0.76234235    -0.05600
C3234       C  0.53529425  0.74905184  0.76477048     0.00400
C3235       C  0.54326477  0.72376831  0.78097657    -0.08200
C3236       C  0.57679359  0.72560192  0.79067620    -0.05600
C3237       C  0.60217804  0.75155912  0.78577102     0.00400
C3238       C  0.59385189  0.77772399  0.77114502    -0.08100
C3239       C  0.62121985  0.80492062  0.76391849     0.62300
H3240       H  0.55375053  0.80027849  0.75308175     0.13000
H3241       H  0.58322149  0.70715262  0.80287528     0.13000
C3242       C  0.51688499  0.69661516  0.78995245     0.62500
F3243       F  0.60991530  0.82365696  0.74682040    -0.22700
F3244       F  0.65264262  0.78789144  0.75870708    -0.20000
F3245       F  0.62759739  0.82898699  0.77925976    -0.19700
F3246       F  0.50064027  0.67665311  0.77522877    -0.19700
F3247       F  0.49121024  0.71390375  0.80134323    -0.20000
F3248       F  0.53345307  0.67259788  0.80293841    -0.22700
C3249       C  0.94133659  0.72572454  0.76228692    -0.05600
C3250       C  0.96642093  0.75379582  0.76397391     0.00400
C3251       C  0.95816887  0.78021672  0.77936264    -0.08200
C3252       C  0.92378595  0.78029133  0.78844861    -0.05600
C3253       C  0.89796833  0.75473428  0.78411205     0.00400
C3254       C  0.90686285  0.72696093  0.77071523    -0.08100
C3255       C  0.87946001  0.69966640  0.76414680     0.62300
H3256       H  0.94773478  0.70248563  0.75364376     0.13000
H3257       H  0.91689525  0.80005437  0.79970094     0.13000
C3258       C  0.98473955  0.80726460  0.78775651     0.62500
F3259       F  0.89169846  0.67917517  0.74805546    -0.22700
F3260       F  0.84886849  0.71679809  0.75767927    -0.20000
F3261       F  0.87128459  0.67710518  0.78027506    -0.19700
F3262       F  0.99988090  0.82780247  0.77254250    -0.19700
F3263       F  0.01109706  0.78992826  0.79854215    -0.20000
F3264       F  0.96878704  0.83066938  0.80124790    -0.22700
C3265       C  0.82954811  0.47492993  0.71496090    -0.05600
C3266       C  0.85173361  0.50470457  0.71541059     0.00400
C3267       C  0.84389593  0.03373894  0.72914979    -0.08200
C3268       C  0.81018031  0.03374977  0.73858790    -0.05600
C3269       C  0.78613024  0.50210439  0.73872902     0.00400
C3270       C  0.79743721  0.47218585  0.72635552    -0.08100
C3271       C  0.77951838  0.43558312  0.72576808     0.62300
H3272       H  0.83818753  0.45303582  0.70559818     0.13000
H3273       H  0.80549666  0.05545488  0.74868123     0.13000
C3274       C  0.87020905  0.06331236  0.73387799     0.62500
F3275       F  0.78574882  0.41751687  0.74382414    -0.22700
F3276       F  0.79313132  0.41454753  0.71027150    -0.20000
F3277       F  0.73927505  0.94317279  0.72417785    -0.19700
F3278       F  0.86325399  0.58452403  0.70955964    -0.19700
F3279       F  0.90263583  0.04885233  0.73948606    -0.20000
F3280       F  0.85868985  0.08454755  0.74980342    -0.22700
C3281       C  0.71529839  0.00702916  0.71449460    -0.05600
C3282       C  0.71478613  0.50740485  0.73832997     0.00400
C3283       C  0.67931292  0.51289680  0.74699341    -0.08200
C3284       C  0.64956255  0.51124653  0.73403044    -0.05600
C3285       C  0.65240146  0.50292906  0.71345246     0.00400
C3286       C  0.68531642  0.00314650  0.70192966    -0.08100
C3287       C  0.68985402  0.99799334  0.67903253     0.62300
H3288       H  0.74090132  0.00681529  0.70707617     0.13000
H3289       H  0.62302106  0.51630572  0.73991484     0.13000
C3290       C  0.67067101  0.52126141  0.76945578     0.62500
F3291       F  0.72533734  0.99745983  0.67313655    -0.22700
F3292       F  0.67323932  0.02540036  0.66858693    -0.20000
F3293       F  0.67477478  0.96609347  0.67343308    -0.19700
F3294       F  0.67871793  0.55622177  0.77350883    -0.19700
F3295       F  0.68829671  0.49919395  0.78287113    -0.20000
F3296       F  0.63481980  0.51694502  0.77390988    -0.22700
C3297       C  0.75030011  0.54016135  0.78591730    -0.05600
C3298       C  0.74887171  0.54087829  0.76418485     0.00400
C3299       C  0.74647363  0.57593086  0.75454751    -0.08200
C3300       C  0.74799598  0.60634465  0.76694019    -0.05600
C3301       C  0.75112152  0.60441705  0.78806420     0.00400
C3302       C  0.75196451  0.57103392  0.79787987    -0.08100
C3303       C  0.75456891  0.56814194  0.82101595     0.62300
H3304       H  0.74976212  0.51520421  0.79394477     0.13000
H3305       H  0.74584980  0.63264350  0.76020956     0.13000
C3306       C  0.74019592  0.58370253  0.73170555     0.62500
F3307       F  0.75402128  0.53321148  0.82779938    -0.22700
F3308       F  0.72621938  0.58565338  0.83002808    -0.20000
F3309       F  0.78604072  0.58333407  0.82738816    -0.19700
F3310       F  0.70439318  0.58043920  0.72748970    -0.19700
F3311       F  0.75933709  0.56213355  0.71884024    -0.20000
F3312       F  0.75016645  0.61802164  0.72644557    -0.22700
C3313       C  0.71949011  0.94900226  0.76223653    -0.05600
C3314       C  0.74870898  0.97300600  0.76336419     0.00400
C3315       C  0.77808176  0.96115853  0.77613069    -0.08200
C3316       C  0.77518444  0.92819737  0.78671630    -0.05600
C3317       C  0.74631665  0.90511052  0.78446221     0.00400
C3318       C  0.71893924  0.91498732  0.77098395    -0.08100
C3319       C  0.68924282  0.89011784  0.76444816     0.62300
H3320       H  0.69688098  0.95485456  0.75293514     0.13000
H3321       H  0.79654456  0.91932126  0.79653721     0.13000
C3322       C  0.81446816  0.97932358  0.77791977     0.62500
F3323       F  0.67946937  0.89700896  0.74440305    -0.22700
F3324       F  0.65980799  0.89530363  0.77688195    -0.20000
F3325       F  0.69964483  0.85492139  0.76515952    -0.19700
F3326       F  0.81217860  0.01555846  0.77953665    -0.19700
F3327       F  0.83537956  0.97075166  0.76123613    -0.20000
F3328       F  0.83256356  0.96791755  0.79517078    -0.22700
C3329       C  0.60760932  0.78629348  0.08658258    -0.05600
C3330       C  0.62995760  0.75715327  0.09064760     0.00400
C3331       C  0.63633293  0.73207549  0.07490282    -0.08200
C3332       C  0.61448281  0.73295428  0.05755620    -0.05600
C3333       C  0.58967129  0.76021832  0.05449895     0.00400
C3334       C  0.58842206  0.78899854  0.06822790    -0.08100
C3335       C  0.56736734  0.82236812  0.06327074     0.62300
H3336       H  0.60449337  0.80653191  0.09812223     0.13000
H3337       H  0.61639383  0.71193547  0.04637424     0.13000
C3338       C  0.66616178  0.70486592  0.07552199     0.62500
F3339       F  0.53147757  0.81487439  0.06197226    -0.22700
F3340       F  0.57905370  0.83619372  0.04473306    -0.20000
F3341       F  0.57178747  0.84813671  0.07800194    -0.19700
F3342       F  0.65355060  0.67327278  0.08364472    -0.19700
F3343       F  0.69460263  0.71679803  0.08687552    -0.20000
F3344       F  0.67894219  0.69848965  0.05596532    -0.22700
C3345       C  0.88171431  0.77797869  0.05722949    -0.05600
C3346       C  0.90194440  0.74739394  0.05377028     0.00400
C3347       C  0.89860322  0.71789885  0.06715289    -0.08200
C3348       C  0.87880324  0.72203331  0.08518080    -0.05600
C3349       C  0.86038384  0.75361072  0.08957094     0.00400
C3350       C  0.85986842  0.78136832  0.07460418    -0.08100
C3351       C  0.83744152  0.81480130  0.07641179     0.62300
H3352       H  0.88434557  0.79999050  0.04652576     0.13000
H3353       H  0.87837018  0.70027303  0.09615146     0.13000
C3354       C  0.91630213  0.68219715  0.06362391     0.62500
F3355       F  0.83243736  0.83082708  0.05748540    -0.22700
F3356       F  0.85450248  0.83898229  0.08871429    -0.20000
F3357       F  0.80406108  0.80690155  0.08423114    -0.19700
F3358       F  0.94088882  0.67584637  0.07887892    -0.19700
F3359       F  0.93338969  0.68005424  0.04488065    -0.20000
F3360       F  0.89074731  0.65580884  0.06441438    -0.22700
C3361       C  0.61723956  0.73438966  0.94545273    -0.05600
C3362       C  0.59050864  0.76014773  0.94737948     0.00400
C3363       C  0.58855368  0.78832229  0.93295118    -0.08200
C3364       C  0.60986405  0.78648751  0.91524996    -0.05600
C3365       C  0.63449048  0.75884951  0.91241639     0.00400
C3366       C  0.64084226  0.73456802  0.92870807    -0.08100
C3367       C  0.67255316  0.70956546  0.92948477     0.62300
H3368       H  0.61965694  0.71399786  0.95718078     0.13000
H3369       H  0.60643512  0.80603224  0.90316177     0.12200
C3370       C  0.56388348  0.81983330  0.93608569     0.62500
F3371       F  0.68574565  0.70792197  0.94919872    -0.22700
F3372       F  0.70016493  0.72093003  0.91695530    -0.20000
F3373       F  0.66208754  0.67591007  0.92384028    -0.19700
F3374       F  0.52891310  0.81008040  0.93304509    -0.19700
F3375       F  0.57187885  0.84731970  0.92262394    -0.20000
F3376       F  0.56743798  0.83250639  0.95575971    -0.22700
C3377       C  0.88258977  0.78082236  0.94316449    -0.05600
C3378       C  0.90392070  0.75107253  0.94699776     0.00400
C3379       C  0.90143426  0.72104118  0.93433662    -0.08200
C3380       C  0.88308199  0.72462182  0.91583008    -0.05600
C3381       C  0.86381338  0.75559498  0.91104551     0.00400
C3382       C  0.86039110  0.78250523  0.92604248    -0.08100
C3383       C  0.83291648  0.81205919  0.92515352     0.62300
H3384       H  0.88334650  0.80285019  0.95371976     0.13000
H3385       H  0.88409303  0.70327563  0.90486237     0.13000
C3386       C  0.91735105  0.68552565  0.94062164     0.62500
F3387       F  0.82232766  0.82149871  0.94471171    -0.22700
F3388       F  0.80265664  0.80131274  0.91501786    -0.20000
F3389       F  0.84735353  0.84164901  0.91561318    -0.19700
F3390       F  0.90280063  0.67506937  0.95921689    -0.19700
F3391       F  0.95384170  0.68797787  0.94255168    -0.20000
F3392       F  0.91014829  0.65937163  0.92649925    -0.22700
C3393       C  0.83403987  0.47499826  0.28656420    -0.05600
C3394       C  0.85658088  0.50427628  0.28371125     0.00400
C3395       C  0.84675381  0.02909362  0.26831999    -0.08200
C3396       C  0.81423437  0.02636952  0.25802821    -0.05600
C3397       C  0.79023895  0.49788517  0.26157205     0.00400
C3398       C  0.80171719  0.47048200  0.27578478    -0.08100
C3399       C  0.78289132  0.43490119  0.27921865     0.62300
H3400       H  0.84244662  0.45496430  0.29746111     0.13000
H3401       H  0.81015922  0.04575839  0.24619849     0.13000
C3402       C  0.87201587  0.05899242  0.26212234     0.62500
F3403       F  0.78440177  0.91498270  0.26344067    -0.22700
F3404       F  0.74316318  0.94189819  0.28325232    -0.20000
F3405       F  0.79589055  0.41674213  0.29611428    -0.19700
F3406       F  0.90704624  0.04768655  0.26245103    -0.19700
F3407       F  0.86500008  0.58776259  0.27768253    -0.20000
F3408       F  0.86268756  0.57609302  0.24433375    -0.22700
C3409       C  0.68180337  0.00417849  0.29643734    -0.05600
C3410       C  0.65054274  0.49982708  0.28409257     0.00400
C3411       C  0.65247103  0.50016042  0.26269478    -0.08200
C3412       C  0.68604217  0.50171584  0.25324334    -0.05600
C3413       C  0.71894269  0.50155048  0.26401669     0.00400
C3414       C  0.71530773  0.00919488  0.28682829    -0.08100
C3415       C  0.74435902  0.02080365  0.30165587     0.62300
H3416       H  0.67987537  0.00342607  0.31301050     0.13000
H3417       H  0.68669469  0.50147935  0.23685986     0.13000
C3418       C  0.61900144  0.49806702  0.24985374     0.62500
F3419       F  0.73040288  0.54067231  0.31547664    -0.22700
F3420       F  0.77220596  0.53698212  0.29217688    -0.20000
F3421       F  0.75763813  0.99164585  0.31207333    -0.19700
F3422       F  0.59666213  0.52612006  0.25451148    -0.19700
F3423       F  0.59701747  0.97833032  0.25500858    -0.20000
F3424       F  0.62341616  0.01255152  0.23112195    -0.22700
C3425       C  0.74370691  0.57038297  0.20442169    -0.05600
C3426       C  0.74698617  0.60142120  0.21575013     0.00400
C3427       C  0.74893403  0.59907639  0.23709983    -0.08200
C3428       C  0.74895499  0.56537961  0.24641060    -0.05600
C3429       C  0.74880796  0.53280223  0.23543574     0.00400
C3430       C  0.74165901  0.53616591  0.21362383    -0.08100
C3431       C  0.72987641  0.50733759  0.19867765     0.62300
H3432       H  0.74136451  0.57330456  0.18796035     0.13000
H3433       H  0.75075778  0.56433096  0.26278610     0.13000
C3434       C  0.75173477  0.63230842  0.24997390     0.62500
F3435       F  0.70622960  0.52154763  0.18460828    -0.22700
F3436       F  0.71189213  0.47947779  0.20756692    -0.20000
F3437       F  0.75891741  0.49479021  0.18785154    -0.19700
F3438       F  0.72278355  0.65413739  0.24631718    -0.19700
F3439       F  0.78264672  0.65032732  0.24486425    -0.20000
F3440       F  0.75252904  0.62457021  0.27071848    -0.22700
C3441       C  0.72291343  0.93965808  0.24236048    -0.05600
C3442       C  0.75043634  0.96482485  0.23793195     0.00400
C3443       C  0.77761641  0.95332470  0.22359586    -0.08200
C3444       C  0.77397603  0.91996741  0.21405565    -0.05600
C3445       C  0.74666521  0.89607910  0.21893339     0.00400
C3446       C  0.72192932  0.90526554  0.23428544    -0.08100
C3447       C  0.69559913  0.87920864  0.24395201     0.62300
H3448       H  0.70287276  0.94482932  0.25376151     0.13000
H3449       H  0.79353280  0.91157197  0.20286338     0.13000
C3450       C  0.81260520  0.97272738  0.21901949     0.62500
F3451       F  0.69564947  0.88282907  0.26502183    -0.22700
F3452       F  0.70390145  0.84416197  0.24003840    -0.20000
F3453       F  0.66175291  0.88649052  0.23687374    -0.19700
F3454       F  0.83647530  0.96592470  0.23454548    -0.19700
F3455       F  0.80811153  0.00869790  0.21664566    -0.20000
F3456       F  0.82818883  0.96118949  0.20098179    -0.22700
loop_ 
_geom_bond_atom_site_label_1 
_geom_bond_atom_site_label_2 
_geom_bond_distance 
_geom_bond_site_symmetry_2 
_ccdc_geom_bond_type 
C1          C850   1.585       .  S
C1         C1669   1.588       .  S
C1         C1685   1.603       .  S
C1         C1701   1.608       .  S
N2            C7   1.350   1_554  A
N2            C6   1.351       .  A
N2           H34   1.039       .  S
N3           C11   1.349       .  A
N3         C1738   1.351       .  A
N4            C9   1.352   1_554  A
N4            C8   1.349       .  A
N4           H35   1.040       .  S
N5           C13   1.350       .  A
N5         C1740   1.347       .  A
C6           C14   1.387       .  A
C6           C22   1.412       .  A
C7           C23   1.412       .  A
C7           C15   1.387       .  A
C8           C16   1.388       .  A
C8           C25   1.412       .  A
C9           C24   1.412       .  A
C9           C17   1.386       .  A
C10        N1731   1.349   1_455  A
C10          C22   1.411       .  A
C10          C18   1.387       .  A
C11          C25   1.412       .  A
C11          C19   1.387       .  A
C12        N1733   1.349       .  A
C12          C20   1.388       .  A
C12          C23   1.411       .  A
C13          C21   1.386       .  A
C13          C24   1.409       .  A
C14          C15   1.380   1_554  A
C14          H26   1.082       .  S
C15          H27   1.082       .  S
C16          C17   1.380   1_554  A
C16          H28   1.082       .  S
C17          H29   1.082       .  S
C18        C1747   1.372   1_455  A
C18          H30   1.082       .  S
C19        C1746   1.373       .  A
C19          H31   1.082       .  S
C20        C1749   1.371   1_455  A
C20          H32   1.082       .  S
C21        C1748   1.373       .  A
C21          H33   1.082       .  S
C22         C741   1.484       .  S
C23         C770   1.482       .  S
C24         C786   1.487       .  S
C25         C754   1.482       .  S
C36         C677   1.604       .  S
C36         C690   1.591       .  S
C36         C706   1.595       .  S
C36        C1586   1.598   1_545  S
C37         C642   1.589   1_655  S
C37        C2338   1.599       .  S
C37        C2354   1.592       .  S
C37        C2386   1.596       .  S
N38          C43   1.351   1_556  A
N38          C42   1.353       .  A
N38          H70   1.035   1_556  S
N39          C47   1.350       .  A
N39         C910   1.353   1_545  A
N40          C45   1.353       .  A
N40          C44   1.351   1_554  A
N40          H71   1.039       .  S
N41          C49   1.353   1_565  A
N41         C912   1.352       .  A
C42          C50   1.387       .  A
C42          C58   1.416       .  A
C43          C59   1.415       .  A
C43          C51   1.386       .  A
C44          C52   1.387       .  A
C44          C61   1.415       .  A
C45          C60   1.418       .  A
C45          C53   1.388       .  A
C46         N903   1.351       .  A
C46          C58   1.415       .  A
C46          C54   1.387       .  A
C47          C61   1.417       .  A
C47          C55   1.388       .  A
C48         N905   1.352       .  A
C48          C56   1.387       .  A
C48          C59   1.416       .  A
C49          C57   1.386       .  A
C49          C60   1.418       .  A
C50          C51   1.379   1_556  A
C50          H62   1.083       .  S
C51          H63   1.083       .  S
C52          C53   1.375   1_556  A
C52          H64   1.082       .  S
C53          H65   1.082       .  S
C54         C919   1.367       .  A
C54          H66   1.082       .  S
C55         C918   1.366   1_545  A
C55          H67   1.082       .  S
C56         C921   1.365       .  A
C56          H68   1.082       .  S
C57         C920   1.366   1_545  A
C57          H69   1.082       .  S
C58         C597   1.489       .  S
C59         C562   1.485       .  S
C60         C546   1.491       .  S
C61         C578   1.483       .  S
C72          N90   1.350       .  A
C72         C109   1.461       .  S
C72         C789   1.484       .  S
N73          N90   1.325       .  A
N73          N95   1.317       .  A
N73        Co110   2.079       .  S
C74          N99   1.340       .  A
C74         H119   1.080       .  S
C74         C112   1.466       .  S
H75         C116   1.076       .  S
C76         N100   1.340       .  A
C76         H105   1.080       .  S
C76          C80   1.460       .  S
Co77         N95   2.085       .  S
Co77         N85   2.090       .  S
Co77        N117   2.096       .  S
Co77         N93   2.110       .  S
Co77       Cl121   2.458       .  S
N78         C116   1.339       .  A
N78          N85   1.317       .  A
N78         Co79   2.079       .  S
Co79         N82   2.080       .  S
Co79         N99   2.088       .  S
Co79         N86   2.094       .  S
Co79       Cl121   2.450       .  S
C80         N118   1.348       .  A
C80         C773   1.481       .  S
N81          N88   1.317       .  A
N81         N111   1.323       .  A
N81        Co114   2.078       .  S
N82         N100   1.318       .  A
N82         N118   1.325       .  A
N83         C112   1.358       .  A
N83          N93   1.329       .  A
H84         C109   1.078       .  S
N85         N106   1.326       .  A
N86         N104   1.322       .  A
N86          N91   1.323       .  A
C87          N91   1.350       .  A
C87         C115   1.466       .  S
C87         C645   1.490       .  S
N88         C103   1.339       .  A
N88        Co110   2.081       .  S
C89         N117   1.341       .  A
C89         H123   1.081       .  S
C89          C92   1.470       .  S
C92         N113   1.352       .  A
C92         C661   1.498       .  S
N93          N99   1.320       .  A
N94         C120   1.340       .  A
N94          N96   1.323       .  A
N94        Co110   2.083       .  S
N95         C109   1.340       .  A
N96         N124   1.329       .  A
N96        Co114   2.107       .  S
H97         C120   1.082       .  S
H98         C115   1.082       .  S
N100       Co114   2.086       .  S
N101        N113   1.325       .  A
N101        N117   1.321       .  A
N101       Co110   2.095       .  S
C102        N106   1.352       .  A
C102        C116   1.460       .  S
C102        C594   1.487       .  S
C103        H107   1.077       .  S
C103        C122   1.461       .  S
N104        C115   1.342       .  A
N104       Co114   2.088       .  S
C108        N124   1.353       .  A
C108        C120   1.454       .  S
C108        C709   1.481       .  S
Co110      Cl121   2.450       .  S
N111        C122   1.350       .  A
C112        C725   1.502       .  S
Co114      Cl121   2.462       .  S
C122        C581   1.483       .  S
C125        N143   1.357       .  A
C125        C162   1.458       .  S
C125        C853   1.488       .  S
N126        N143   1.329       .  A
N126        N148   1.322       .  A
N126       Co163   2.106       .  S
C127        N152   1.337       .  A
C127        H172   1.079       .  S
C127        C165   1.457       .  S
H128        C169   1.081       .  S
C129        N153   1.341       .  A
C129        H158   1.082       .  S
C129        C133   1.459       .  S
Co130       N148   2.079       .  S
Co130       N138   2.081       .  S
Co130       N170   2.063       .  S
Co130       N146   2.090       .  S
Co130      Cl174   2.451       .  S
N131        C169   1.339       .  A
N131        N138   1.321       .  A
N131       Co132   2.091       .  S
Co132       N135   2.099       .  S
Co132       N152   2.076       .  S
Co132       N139   2.082       .  S
Co132      Cl174   2.458       .  S
C133        N171   1.352       .  A
C133        C834   1.481       .  S
N134        N141   1.322       .  A
N134        N164   1.324       .  A
N134       Co167   2.086       .  S
N135        N153   1.322       .  A
N135        N171   1.327       .  A
N136        C165   1.353       .  A
N136        N146   1.327       .  A
H137        C162   1.081       .  S
N138        N159   1.325       .  A
N139        N157   1.318       .  A
N139        N144   1.325       .  A
C140        N144   1.349       .  A
C140        C168   1.456       .  S
C140        C549   1.474       .  S
N141        C156   1.346       .  A
N141       Co163   2.105       .  S
C142        N170   1.335       .  A
C142        H176   1.074       .  S
C142        C145   1.462       .  S
C145        N166   1.356       .  A
C145        C565   1.493       .  S
N146        N152   1.318       .  A
N147        C173   1.337       .  A
N147        N149   1.319       .  A
N147       Co163   2.075       .  S
N148        C162   1.336       .  A
N149        N177   1.327       .  A
N149       Co167   2.092       .  S
H150        C173   1.079       .  S
H151        C168   1.081       .  S
N153       Co167   2.090       .  S
N154        N166   1.325       .  A
N154        N170   1.315       .  A
N154       Co163   2.096       .  S
C155        N159   1.348       .  A
C155        C169   1.466       .  S
C155        C514   1.483       .  S
C156        H160   1.082       .  S
C156        C175   1.467       .  S
N157        C168   1.338       .  A
N157       Co167   2.074       .  S
C161        N177   1.351       .  A
C161        C173   1.456       .  S
C161        C757   1.479       .  S
Co163      Cl174   2.462       .  S
N164        C175   1.348       .  A
C165        C738   1.483       .  S
Co167      Cl174   2.448       .  S
C175        C530   1.485       .  S
C178        N196   1.345       .  A
C178        C629   1.500       .  S
C178       C1943   1.478       .  S
N179        N196   1.321       .  A
N179       N1929   1.322       .  A
N179       Co216   2.076       .  S
C180        N205   1.340       .  A
C180        H225   1.080       .  S
C180        C218   1.467       .  S
H181        C222   1.081       .  S
C182        N206   1.344       .  A
C182        H211   1.081       .  S
C182        C186   1.471       .  S
Co183       N201   2.095       .  S
Co183       N191   2.083       .  S
Co183       N223   2.075       .  S
Co183       N199   2.093       .  S
Co183     Cl2819   2.451   1_455  S
N184        C222   1.343       .  A
N184       N1055   1.324   1_545  A
N184       Co185   2.100       .  S
Co185       N188   2.101       .  S
Co185       N205   2.089       .  S
Co185       N192   2.100       .  S
Co185     Cl1955   2.449       .  S
C186       N1952   1.349       .  A
C186        C613   1.493       .  S
N187        N217   1.318       .  A
N187       N1058   1.320   1_545  A
N187       Co220   2.062       .  S
N188        N224   1.326       .  A
N188       N1934   1.321   1_455  A
N189       C1082   1.353       .  A
N189        N199   1.325       .  A
H190        C215   1.082       .  S
N191        N212   1.323       .  A
N191       N1048   1.321       .  A
N192        N197   1.326       .  A
N192       N1938   1.319   1_455  A
C193       N1925   1.352       .  A
C193        C221   1.454       .  S
C193        C482   1.482       .  S
N194        C209   1.348       .  A
N194       N1051   1.320       .  A
N194       Co216   2.113       .  S
C195        N223   1.337       .  A
C195        H229   1.079       .  S
C195       C1926   1.462       .  S
N197       C1921   1.355   1_455  A
C198        N219   1.357       .  A
C198        C498   1.504       .  S
C198       C1923   1.462       .  S
N199       N1069   1.318       .  A
N200        C226   1.333       .  A
N200       N1066   1.317       .  A
N200       Co216   2.057       .  S
N201        C215   1.342       .  A
N201       N1907   1.318   1_455  A
N202        N230   1.323       .  A
N202       N1064   1.316   1_545  A
N202       Co220   2.085       .  S
H203        C226   1.080       .  S
H204        C221   1.081       .  S
N205       N1063   1.318   1_545  A
N206       N1916   1.318       .  A
N206       Co220   2.094       .  S
N207        N219   1.329       .  A
N207       N1951   1.316       .  A
N207       Co216   2.107       .  S
C208       N1076   1.347   1_545  A
C208        C222   1.461       .  S
C208        C693   1.476       .  S
C209        H213   1.081       .  S
C209       C1092   1.475       .  S
N210        C221   1.335       .  A
N210       N1920   1.316       .  A
N210       Co220   2.057       .  S
N212       C1072   1.348       .  A
C214        N230   1.351   1_565  A
C214        C466   1.471       .  S
C214       C1090   1.453       .  S
C215       C1906   1.472       .  S
Co216     Cl1091   2.447       .  S
N217        C228   1.344   1_545  A
C218       N1053   1.352   1_545  A
C218        C450   1.499       .  S
Co220      Cl227   2.451   1_545  S
N223       N1935   1.317   1_455  A
N224       C1914   1.353       .  A
C226       C1078   1.452       .  S
Cl227     Co2775   2.462       .  S
Cl227     Co1913   2.441   1_565  S
Cl227     Co1080   2.447       .  S
C228        C674   1.496       .  S
C228       C1073   1.480       .  S
C231        N249   1.350   1_565  A
C231        C818   1.480       .  S
C231       C1132   1.458       .  S
N232        N249   1.326       .  A
N232       N1118   1.324   1_545  A
N232       Co269   2.097       .  S
C233        N258   1.338       .  A
C233        H278   1.073       .  S
C233        C271   1.470       .  S
H234        C275   1.082       .  S
C235        N259   1.340       .  A
C235        H264   1.080       .  S
C235        C239   1.464   1_545  S
Co236       N254   2.096       .  S
Co236       N244   2.093       .  S
Co236       N276   2.075       .  S
Co236       N252   2.094       .  S
Co236     Cl2872   2.458       .  S
N237        C275   1.336       .  A
N237       N1972   1.322       .  A
N237       Co238   2.086       .  S
Co238       N241   2.107       .  S
Co238       N258   2.088       .  S
Co238       N245   2.081       .  S
Co238     Cl1144   2.450       .  S
C239       N1141   1.358       .  A
C239        C802   1.496       .  S
N240        N270   1.327       .  A
N240       N1975   1.322       .  A
N240       Co273   2.098       .  S
N241        N277   1.327       .  A
N241       N1123   1.319       .  A
N242       C1999   1.356   1_455  A
N242        N252   1.327       .  A
H243        C268   1.082       .  S
N244        N265   1.329       .  A
N244       N1965   1.322   1_455  A
N245        N250   1.325       .  A
N245       N1127   1.319       .  A
C246       N1114   1.347       .  A
C246        C274   1.460   1_565  S
C246        C434   1.481       .  S
N247        C262   1.347       .  A
N247       N1968   1.324   1_455  A
N247       Co269   2.115       .  S
C248        N276   1.336       .  A
C248        H282   1.080       .  S
C248       C1115   1.464       .  S
N250       C1110   1.347       .  A
C251        N272   1.356   1_565  A
C251        C421   1.501       .  S
C251       C1112   1.463       .  S
N252       N1986   1.316   1_455  A
N253        C279   1.340       .  A
N253       N1983   1.319   1_455  A
N253       Co269   2.086       .  S
N254        C268   1.342       .  A
N254       N1096   1.322       .  A
N255        N283   1.323       .  A
N255       N1981   1.317       .  A
N255       Co273   2.081       .  S
H256        C279   1.080       .  S
H257        C274   1.080       .  S
N258       N1980   1.315       .  A
N259       N1105   1.320   1_545  A
N259       Co273   2.081       .  S
N260        N272   1.326       .  A
N260       N1140   1.318   1_545  A
N260       Co269   2.102       .  S
C261       N1993   1.352       .  A
C261        C275   1.464       .  S
C261        C354   1.497       .  S
C262        H266   1.081       .  S
C262       C2009   1.466       .  S
N263        C274   1.341       .  A
N263       N1109   1.319   1_545  A
N263       Co273   2.084       .  S
N265       C1989   1.352       .  A
C267        N283   1.348       .  A
C267        C386   1.486       .  S
C267       C2007   1.463       .  S
C268       C1095   1.461       .  S
Co269     Cl2008   2.455       .  S
N270        C281   1.352       .  A
C271       N1970   1.356       .  A
C271        C405   1.506       .  S
Co273      Cl280   2.463   1_545  S
N276       N1124   1.317       .  A
N277       C1103   1.359       .  A
C279       C1995   1.462   1_455  S
Cl280     Co2828   2.464       .  S
Cl280     Co1102   2.440       .  S
Cl280     Co1997   2.447   1_565  S
C281        C370   1.487       .  S
C281       C1990   1.460       .  S
N284        C289   1.347   1_455  A
N284        C288   1.348   1_455  A
N284        H316   1.042       .  S
N285        C292   1.351       .  A
N285        C293   1.348       .  A
N286        C291   1.353       .  A
N286        C290   1.351       .  A
N286        H317   1.042       .  S
N287        C294   1.346       .  A
N287        C295   1.348       .  A
C288        C296   1.388       .  A
C288        C304   1.407   1_655  A
C289        C305   1.404       .  A
C289        C297   1.386       .  A
C290        C298   1.388   1_455  A
C290        C307   1.415       .  A
C291        C306   1.412       .  A
C291        C299   1.385   1_455  A
C292        C304   1.412       .  A
C292        C300   1.385       .  A
C293        C307   1.411       .  A
C293        C301   1.388       .  A
C294        C302   1.388       .  A
C294        C305   1.407   1_455  A
C295        C303   1.386       .  A
C295        C306   1.406       .  A
C296        C297   1.380       .  A
C296        H308   1.083       .  S
C297        H309   1.082       .  S
C298        C299   1.382       .  A
C298        H310   1.082       .  S
C299        H311   1.082       .  S
C300        C301   1.374       .  A
C300        H312   1.082       .  S
C301        H313   1.082       .  S
C302        C303   1.371       .  A
C302        H314   1.082       .  S
C303        H315   1.082       .  S
C304        C389   1.486       .  S
C305        C485   1.473       .  S
C306        C501   1.490       .  S
C307        C402   1.485       .  S
N318        C323   1.349       .  A
N318        C322   1.351       .  A
N318        H350   1.039       .  S
N319        C326   1.349       .  A
N319        C327   1.349       .  A
N320        C325   1.351       .  A
N320        C324   1.349       .  A
N320        H351   1.041       .  S
N321        C328   1.350       .  A
N321        C329   1.350       .  A
C322        C330   1.386       .  A
C322        C338   1.412       .  A
C323        C339   1.413       .  A
C323        C331   1.387       .  A
C324        C332   1.386       .  A
C324        C341   1.410       .  A
C325        C340   1.411       .  A
C325        C333   1.387       .  A
C326        C338   1.409       .  A
C326        C334   1.386       .  A
C327        C341   1.412       .  A
C327        C335   1.388       .  A
C328        C336   1.387       .  A
C328        C339   1.412       .  A
C329        C337   1.386       .  A
C329        C340   1.411       .  A
C330        C331   1.381       .  A
C330        H342   1.082       .  S
C331        H343   1.082       .  S
C332        C333   1.382       .  A
C332        H344   1.082       .  S
C333        H345   1.082       .  S
C334        C335   1.367       .  A
C334        H346   1.082       .  S
C335        H347   1.082       .  S
C336        C337   1.371       .  A
C336        H348   1.082       .  S
C337        H349   1.082       .  S
C338        C453   1.484       .  S
C339        C418   1.482       .  S
C340        C437   1.487       .  S
C341        C469   1.483       .  S
C352        C357   1.616       .  S
C352        C373   1.613       .  S
C352        C517   1.590   1_655  S
C352       C2261   1.592       .  S
C353        C354   1.392       .  A
C353        C358   1.408       .  A
C353        H360   1.082       .  S
C354       C2083   1.414       .  A
C355        C362   1.518       .  S
C355        C356   1.417       .  A
C355       C2082   1.413       .  A
C356        C357   1.431   1_455  A
C356        H361   1.079       .  S
C357       C2086   1.460       .  A
C358        C359   1.522       .  S
C358       C2085   1.451       .  A
C359        F363   1.387       .  S
C359        F364   1.378       .  S
C359        F365   1.372       .  S
C362        F366   1.383       .  S
C362        F367   1.383       .  S
C362        F368   1.385       .  S
C369        C370   1.390       .  A
C369        C374   1.417       .  A
C369        H376   1.083       .  S
C370       C2099   1.406       .  A
C371        C378   1.519       .  S
C371        C372   1.413       .  A
C371       C2098   1.407   1_655  A
C372        C373   1.426       .  A
C372        H377   1.076       .  S
C373       C2102   1.464   1_655  A
C374        C375   1.538       .  S
C374       C2101   1.460       .  A
C375        F379   1.385       .  S
C375        F380   1.373       .  S
C375        F381   1.375       .  S
C378        F382   1.384   1_655  S
C378        F383   1.383       .  S
C378        F384   1.384       .  S
C385        C390   1.403       .  A
C385       C2114   1.401   1_455  A
C385        H392   1.076       .  S
C386        C387   1.423       .  A
C386       C2113   1.408       .  A
C387        C394   1.521       .  S
C387        C388   1.405       .  A
C388       C2117   1.399       .  A
C388        H393   1.083       .  S
C389        C390   1.415       .  A
C389       C2116   1.404   1_455  A
C390        C391   1.521       .  S
C391        F395   1.380       .  S
C391        F396   1.383       .  S
C391        F397   1.384       .  S
C394        F398   1.381       .  S
C394        F399   1.383       .  S
C394        F400   1.385       .  S
C401        C406   1.406       .  A
C401       C2130   1.395       .  A
C401        H408   1.084       .  S
C402        C403   1.408       .  A
C402       C2129   1.397   1_455  A
C403        C410   1.515       .  S
C403        C404   1.410       .  A
C404       C2133   1.411       .  A
C404        H409   1.083       .  S
C405        C406   1.431       .  A
C405       C2132   1.414       .  A
C406        C407   1.516       .  S
C407        F411   1.385       .  S
C407        F412   1.382       .  S
C407        F413   1.381       .  S
C410        F414   1.383       .  S
C410        F415   1.382       .  S
C410        F416   1.381       .  S
C417        C418   1.398       .  A
C417        C422   1.407       .  A
C417        H424   1.083       .  S
C418       C1283   1.411       .  A
C419        C426   1.520       .  S
C419        C420   1.407       .  A
C419       C1282   1.411       .  A
C420        C421   1.412       .  A
C420        H425   1.079       .  S
C421       C1286   1.426   1_565  A
C422        C423   1.516       .  S
C422       C1285   1.427       .  A
C423        F427   1.385       .  S
C423        F429   1.383       .  S
C423       F1292   1.376       .  S
C426        F430   1.385       .  S
C426        F432   1.382       .  S
C426       F1295   1.382       .  S
F428       C1287   1.376       .  S
F431       C1290   1.382       .  S
C433        C438   1.407       .  A
C433       C1298   1.404       .  A
C433        H440   1.083       .  S
C434        C435   1.419   1_565  A
C434       C1297   1.405       .  A
C435        C442   1.515       .  S
C435        C436   1.401       .  A
C436       C1301   1.399   1_545  A
C436        H441   1.085       .  S
C437        C438   1.417       .  A
C437       C1300   1.400       .  A
C438        C439   1.519       .  S
C439        F443   1.384       .  S
C439        F444   1.380       .  S
C439        F445   1.384       .  S
C442        F446   1.380       .  S
C442        F447   1.382       .  S
C442        F448   1.384       .  S
C449        C454   1.405       .  A
C449       C1314   1.410       .  A
C449        H456   1.075       .  S
C450        C451   1.426   1_545  A
C450       C1313   1.409       .  A
C451        C458   1.518       .  S
C451        C452   1.409       .  A
C452       C1317   1.400   1_565  A
C452        H457   1.083       .  S
C453        C454   1.409       .  A
C453       C1316   1.400       .  A
C454        C455   1.522       .  S
C455        F461   1.383       .  S
C455       F1323   1.383       .  S
C455       F1324   1.382       .  S
C458        F462   1.380       .  S
C458       F1327   1.383       .  S
C458       F1328   1.385       .  S
F459       C1319   1.383       .  S
F460       C1319   1.383       .  S
F463       C1322   1.384       .  S
F464       C1322   1.384       .  S
C465        C466   1.406   1_545  A
C465        C470   1.404       .  A
C465        H472   1.083       .  S
C466       C1331   1.419       .  A
C467        C474   1.522       .  S
C467        C468   1.398       .  A
C467       C1330   1.417       .  A
C468        C469   1.401       .  A
C468        H473   1.085       .  S
C469       C1334   1.415       .  A
C470        C471   1.517       .  S
C470       C1333   1.411       .  A
C471        F477   1.382       .  S
C471       F1339   1.384       .  S
C471       F1340   1.383       .  S
C474        F478   1.381       .  S
C474       F1343   1.382       .  S
C474       F1344   1.385       .  S
F475       C1335   1.385       .  S
F476       C1335   1.383       .  S
F479       C1338   1.381       .  S
F480       C1338   1.385       .  S
C481        C482   1.409       .  A
C481        C486   1.403       .  A
C481        H488   1.081       .  S
C482       C2211   1.421       .  A
C483        C490   1.507       .  S
C483        C484   1.401       .  A
C483       C2210   1.416   1_455  A
C484        C485   1.396   1_455  A
C484        H489   1.084       .  S
C485       C2214   1.411       .  A
C486        C487   1.519       .  S
C486       C2213   1.410       .  A
C487        F491   1.385       .  S
C487        F492   1.383       .  S
C487        F493   1.382       .  S
C490        F494   1.384       .  S
C490        F495   1.381       .  S
C490        F496   1.384       .  S
C497        C502   1.404       .  A
C497       C2226   1.408       .  A
C497        H504   1.080       .  S
C498        C499   1.426       .  A
C498       C2225   1.413       .  A
C499        C506   1.517       .  S
C499        C500   1.410       .  A
C500       C2229   1.400       .  A
C500        H505   1.083       .  S
C501        C502   1.412       .  A
C501       C2228   1.405   1_455  A
C502        C503   1.519       .  S
C503        F507   1.385       .  S
C503        F508   1.381       .  S
C503        F509   1.384       .  S
C506        F510   1.382       .  S
C506        F511   1.383       .  S
C506        F512   1.385       .  S
C513        C514   1.403       .  A
C513        C518   1.420       .  A
C513        H520   1.082       .  S
C514        C515   1.403       .  A
C515        C522   1.521       .  S
C515        C516   1.398       .  A
C516        C517   1.427       .  A
C516        H521   1.077       .  S
C517        C518   1.446       .  A
C518        C519   1.525       .  S
C519        F523   1.385       .  S
C519        F524   1.380       .  S
C519        F525   1.372   1_455  S
C522        F526   1.383       .  S
C522        F527   1.382       .  S
C522        F528   1.384       .  S
C529        C530   1.398       .  A
C529        C534   1.418       .  A
C529        H536   1.085       .  S
C530        C531   1.406       .  A
C531        C538   1.520       .  S
C531        C532   1.407       .  A
C532        C533   1.428       .  A
C532        H537   1.077       .  S
C533       C2080   1.601       .  S
C533        C534   1.455       .  A
C534        C535   1.527       .  S
C535        F539   1.386       .  S
C535        F540   1.368       .  S
C535        F541   1.381       .  S
C538        F542   1.382       .  S
C538        F543   1.383       .  S
C538        F544   1.385       .  S
C545        C546   1.402       .  A
C545        C550   1.402       .  A
C545        H552   1.085       .  S
C546        C547   1.421       .  A
C547        C554   1.518       .  S
C547        C548   1.404       .  A
C548        C549   1.401       .  A
C548        H553   1.085       .  S
C549        C550   1.418       .  A
C550        C551   1.519       .  S
C551        F555   1.384       .  S
C551        F556   1.382       .  S
C551        F557   1.381       .  S
C554        F558   1.383       .  S
C554        F559   1.382       .  S
C554        F560   1.384       .  S
C561        C562   1.398       .  A
C561        C566   1.407       .  A
C561        H568   1.084       .  S
C562        C563   1.413       .  A
C563        C570   1.517       .  S
C563        C564   1.403       .  A
C564        C565   1.408       .  A
C564        H569   1.084       .  S
C565        C566   1.428       .  A
C566        C567   1.520       .  S
C567        F571   1.385       .  S
C567        F572   1.382       .  S
C567        F573   1.382       .  S
C570        F574   1.383       .  S
C570        F575   1.382       .  S
C570        F576   1.384       .  S
C577        C578   1.399       .  A
C577        C582   1.404       .  A
C577        H584   1.084       .  S
C578        C579   1.411       .  A
C579        C586   1.518       .  S
C579        C580   1.403       .  A
C580        C581   1.407       .  A
C580        H585   1.083       .  S
C581        C582   1.422       .  A
C582        C583   1.518       .  S
C583        F587   1.385       .  S
C583        F588   1.384       .  S
C583        F589   1.381       .  S
C586        F590   1.383       .  S
C586        F591   1.381       .  S
C586        F592   1.384       .  S
C593        C594   1.405       .  A
C593        C598   1.406       .  A
C593        H600   1.083       .  S
C594        C595   1.424       .  A
C595        C602   1.518       .  S
C595        C596   1.406       .  A
C596        C597   1.399       .  A
C596        H601   1.084       .  S
C597        C598   1.414       .  A
C598        C599   1.518       .  S
C599        F603   1.385       .  S
C599        F604   1.383       .  S
C599        F605   1.381       .  S
C602        F606   1.383       .  S
C602        F607   1.380       .  S
C602        F608   1.386       .  S
C609        C614   1.405       .  A
C609       C2338   1.426   1_455  A
C609        H616   1.072       .  S
C610       C1765   1.592       .  S
C610        C611   1.453       .  A
C610       C2337   1.423       .  A
C611        C618   1.535       .  S
C611        C612   1.414       .  A
C612        C613   1.398       .  A
C612        H617   1.081       .  S
C613       C2342   1.412       .  A
C614        C615   1.523       .  S
C614       C2341   1.410       .  A
C615        F619   1.385       .  S
C615        F620   1.382       .  S
C615        F621   1.383       .  S
C618        F622   1.374       .  S
C618        F623   1.385       .  S
C618        F624   1.380       .  S
C625        C626   1.421       .  A
C625        C630   1.408       .  A
C625        H632   1.071       .  S
C626       C1765   1.600       .  S
C626       C2355   1.453       .  A
C627        C634   1.535       .  S
C627        C628   1.412       .  A
C627       C2354   1.452   1_455  A
C628       C2357   1.397   1_455  A
C628        H633   1.080       .  S
C629        C630   1.417       .  A
C629       C2356   1.399       .  A
C630        C631   1.525       .  S
C631        F635   1.385       .  S
C631        F636   1.383       .  S
C631        F637   1.383       .  S
C634        F638   1.374       .  S
C634        F639   1.385       .  S
C634        F640   1.379       .  S
C641        C642   1.421       .  A
C641        C646   1.402       .  A
C641        H648   1.071       .  S
C642        C643   1.453       .  A
C643        C650   1.536       .  S
C643        C644   1.415       .  A
C644        C645   1.398       .  A
C644        H649   1.081       .  S
C645        C646   1.408       .  A
C646        C647   1.520       .  S
C647        F651   1.385       .  S
C647        F652   1.384       .  S
C647        F653   1.381       .  S
C650        F654   1.374   1_455  S
C650        F655   1.380   1_455  S
C650        F656   1.385       .  S
C657        C658   1.427       .  A
C657        C662   1.409       .  A
C657        H664   1.072       .  S
C658       C1765   1.597       .  S
C658        C659   1.449       .  A
C659        C666   1.534       .  S
C659        C660   1.414       .  A
C660        C661   1.401       .  A
C660        H665   1.080       .  S
C661        C662   1.413       .  A
C662        C663   1.524       .  S
C663        F667   1.385       .  S
C663        F668   1.383       .  S
C663        F669   1.383       .  S
C666        F670   1.374       .  S
C666        F671   1.380       .  S
C666        F672   1.385       .  S
C673        C674   1.394       .  A
C673        C678   1.415       .  A
C673        H680   1.083       .  S
C674       C1539   1.414   1_565  A
C675        C682   1.526       .  S
C675        C676   1.408       .  A
C675       C1538   1.411       .  A
C676       C1541   1.430       .  A
C676        H681   1.070       .  S
C677        C678   1.457   1_545  A
C677       C1540   1.424       .  A
C678        C679   1.530       .  S
C679        F683   1.382       .  S
C679        F684   1.386       .  S
C679       F1549   1.366       .  S
C682        F687   1.384       .  S
C682        F688   1.385       .  S
C682       F1550   1.382       .  S
F685       C1543   1.366       .  S
F686       C1546   1.382       .  S
C689        C694   1.410       .  A
C689       C1554   1.423       .  A
C689        H696   1.076       .  S
C690        C691   1.459       .  A
C690       C1553   1.424       .  A
C691        C698   1.535       .  S
C691        C692   1.411       .  A
C692        C693   1.387       .  A
C692        H697   1.083       .  S
C693       C1558   1.406       .  A
C694        C695   1.519       .  S
C694       C1557   1.406       .  A
C695        F699   1.384       .  S
C695        F700   1.383       .  S
C695        F701   1.383       .  S
C698        F702   1.380       .  S
C698        F703   1.374   1_545  S
C698        F704   1.386       .  S
C705        C706   1.426       .  A
C705        C710   1.409       .  A
C705        H712   1.074       .  S
C706        C707   1.458       .  A
C707        C714   1.535       .  S
C707        C708   1.413       .  A
C708        C709   1.389       .  A
C708        H713   1.083       .  S
C709        C710   1.406       .  A
C710        C711   1.520       .  S
C711        F715   1.385       .  S
C711        F716   1.383       .  S
C711        F717   1.382       .  S
C714        F718   1.381       .  S
C714        F719   1.374       .  S
C714        F720   1.386       .  S
C721        C722   1.428       .  A
C721        C726   1.404       .  A
C721        H728   1.072       .  S
C722        C900   1.610       .  S
C722        C723   1.454       .  A
C723        C730   1.529       .  S
C723        C724   1.422       .  A
C724        C725   1.400       .  A
C724        H729   1.083       .  S
C725        C726   1.409       .  A
C726        C727   1.522       .  S
C727        F731   1.386       .  S
C727        F732   1.381       .  S
C727        F733   1.381       .  S
C730        F734   1.370       .  S
C730        F735   1.382       .  S
C730        F736   1.385       .  S
C737        C738   1.405       .  A
C737        C742   1.408       .  A
C737        H744   1.083       .  S
C738        C739   1.424       .  A
C739        C746   1.519       .  S
C739        C740   1.403       .  A
C740        C741   1.397       .  A
C740        H745   1.084       .  S
C741        C742   1.415       .  A
C742        C743   1.519       .  S
C743        F747   1.382       .  S
C743        F748   1.383       .  S
C743        F749   1.384       .  S
C746        F750   1.382       .  S
C746        F751   1.382       .  S
C746        F752   1.385       .  S
C753        C754   1.398       .  A
C753        C758   1.401       .  A
C753        H760   1.084       .  S
C754        C755   1.416       .  A
C755        C762   1.519       .  S
C755        C756   1.407       .  A
C756        C757   1.404       .  A
C756        H761   1.083       .  S
C757        C758   1.420       .  A
C758        C759   1.517       .  S
C759        F763   1.385       .  S
C759        F764   1.380       .  S
C759        F765   1.384       .  S
C762        F766   1.381       .  S
C762        F767   1.383       .  S
C762        F768   1.384       .  S
C769        C770   1.396       .  A
C769        C774   1.401       .  A
C769        H776   1.085       .  S
C770        C771   1.415       .  A
C771        C778   1.517       .  S
C771        C772   1.406       .  A
C772        C773   1.404       .  A
C772        H777   1.084       .  S
C773        C774   1.420       .  A
C774        C775   1.512       .  S
C775        F779   1.385       .  S
C775        F780   1.382       .  S
C775        F781   1.380       .  S
C778        F782   1.382       .  S
C778        F783   1.384       .  S
C778        F784   1.384       .  S
C785        C786   1.399       .  A
C785        C790   1.406       .  A
C785        H792   1.084       .  S
C786        C787   1.415       .  A
C787        C794   1.519       .  S
C787        C788   1.407       .  A
C788        C789   1.405       .  A
C788        H793   1.083       .  S
C789        C790   1.422       .  A
C790        C791   1.518       .  S
C791        F795   1.385       .  S
C791        F796   1.383       .  S
C791        F797   1.381       .  S
C794        F798   1.383       .  S
C794        F799   1.382       .  S
C794        F800   1.384       .  S
C801        C802   1.398       .  A
C801        C806   1.415       .  A
C801        H808   1.081       .  S
C802       C1667   1.414   1_565  A
C803        C810   1.524       .  S
C803        C804   1.407       .  A
C803       C1666   1.413       .  A
C804       C1669   1.425       .  A
C804        H809   1.071       .  S
C805        C865   1.590       .  S
C805        C806   1.451       .  A
C805       C1668   1.427   1_565  A
C806        C807   1.531       .  S
C807        F813   1.385       .  S
C807       F1675   1.380       .  S
C807       F1676   1.375       .  S
C810        F814   1.383       .  S
C810       F1679   1.381       .  S
C810       F1680   1.385       .  S
F811       C1671   1.380       .  S
F812       C1671   1.375       .  S
F815       C1674   1.383       .  S
F816       C1674   1.385       .  S
C817        C822   1.418       .  A
C817       C1682   1.394       .  A
C817        H824   1.084       .  S
C818        C819   1.398       .  A
C818       C1681   1.396   1_565  A
C819        C826   1.519       .  S
C819        C820   1.401       .  A
C820        C821   1.425       .  A
C820        H825   1.070       .  S
C821        C865   1.603       .  S
C821       C1686   1.458   1_565  A
C822        C823   1.537       .  S
C822       C1685   1.459       .  A
C823        F829   1.378       .  S
C823       F1691   1.386       .  S
C823       F1692   1.374       .  S
C826        F830   1.383   1_565  S
C826       F1695   1.383       .  S
C826       F1696   1.384       .  S
F827       C1687   1.386       .  S
F828       C1687   1.371       .  S
F831       C1690   1.383       .  S
F832       C1690   1.385       .  S
C833        C834   1.396       .  A
C833        C838   1.420       .  A
C833        H840   1.084       .  S
C834        C835   1.398       .  A
C835        C842   1.519       .  S
C835        C836   1.402       .  A
C836        C837   1.426       .  A
C836        H841   1.071       .  S
C837        C865   1.603   1_545  S
C837        C838   1.458       .  A
C838        C839   1.536       .  S
C839        F843   1.387       .  S
C839        F844   1.372   1_545  S
C839        F845   1.380   1_545  S
C842        F846   1.383       .  S
C842        F847   1.383       .  S
C842        F848   1.384       .  S
C849        C850   1.426       .  A
C849        C854   1.402       .  A
C849        H856   1.074       .  S
C850        C851   1.452       .  A
C851        C858   1.532       .  S
C851        C852   1.417       .  A
C852        C853   1.397       .  A
C852        H857   1.082       .  S
C853        C854   1.410       .  A
C854        C855   1.524       .  S
C855        F859   1.385       .  S
C855        F860   1.382       .  S
C855        F861   1.383       .  S
C858        F862   1.381       .  S
C858        F863   1.375       .  S
C858        F864   1.385       .  S
C865       C1714   1.589       .  S
N866        C871   1.354   1_554  A
N866        C870   1.353       .  A
N866        H898   1.033       .  S
N867       C2602   1.353       .  A
N867        C875   1.353       .  A
N868        C873   1.354   1_554  A
N868        C872   1.353       .  A
N868        H899   1.035       .  S
N869       C2604   1.351       .  A
N869        C877   1.352       .  A
C870        C878   1.387       .  A
C870        C886   1.418       .  A
C871        C887   1.418       .  A
C871        C879   1.387       .  A
C872        C880   1.389       .  A
C872        C889   1.419       .  A
C873        C888   1.417       .  A
C873        C881   1.386       .  A
C874       N2595   1.350   1_455  A
C874        C886   1.416       .  A
C874        C882   1.387       .  A
C875        C889   1.419       .  A
C875        C883   1.388       .  A
C876       N2597   1.351   1_455  A
C876        C884   1.387       .  A
C876        C887   1.417       .  A
C877        C885   1.387       .  A
C877        C888   1.415       .  A
C878        C879   1.376   1_554  A
C878        H890   1.083       .  S
C879        H891   1.082       .  S
C880        C881   1.374   1_554  A
C880        H892   1.082       .  S
C881        H893   1.082       .  S
C882       C2611   1.366   1_455  A
C882        H894   1.082       .  S
C883       C2610   1.368       .  A
C883        H895   1.081       .  S
C884       C2613   1.366   1_455  A
C884        H896   1.082       .  S
C885       C2612   1.367       .  A
C885        H897   1.082       .  S
C886       C1605   1.486       .  S
C887       C1634   1.488       .  S
C888       C1650   1.489       .  S
C889       C1618   1.488       .  S
C900       C1541   1.607       .  S
C900       C1554   1.591       .  S
C900       C1570   1.592       .  S
C901       C3202   1.595       .  S
C901       C3218   1.592   1_455  S
C901       C1506   1.597       .  S
C901       C3250   1.597   1_455  S
N902        C907   1.351       .  A
N902        C906   1.352   1_554  A
N902        H934   1.036       .  S
N903        C911   1.351       .  A
N904        C909   1.353       .  A
N904        C908   1.352   1_554  A
N904        H935   1.034       .  S
N905        C913   1.353       .  A
C906        C914   1.388       .  A
C906        C922   1.420       .  A
C907        C923   1.418       .  A
C907        C915   1.388       .  A
C908        C916   1.387       .  A
C908        C925   1.417       .  A
C909        C924   1.417       .  A
C909        C917   1.388       .  A
C910        C922   1.417       .  A
C910        C918   1.386       .  A
C911        C925   1.415       .  A
C911        C919   1.387       .  A
C912        C920   1.389       .  A
C912        C923   1.421       .  A
C913        C921   1.387       .  A
C913        C924   1.417       .  A
C914        C915   1.375   1_556  A
C914        H926   1.082       .  S
C915        H927   1.082       .  S
C916        C917   1.373   1_556  A
C916        H928   1.082       .  S
C917        H929   1.082       .  S
C918        H930   1.082       .  S
C919        H931   1.081       .  S
C920        H932   1.081       .  S
C921        H933   1.081       .  S
C922       C1461   1.491       .  S
C923       C1426   1.485       .  S
C924       C1410   1.487       .  S
C925       C1442   1.484       .  S
C936        N954   1.352       .  A
C936        C973   1.470       .  S
C936       C1653   1.498       .  S
N937        N954   1.324       .  A
N937        N959   1.316       .  A
N937       Co974   2.080       .  S
C938        N963   1.335       .  A
C938        H983   1.081       .  S
C938        C976   1.460       .  S
H939        C980   1.076       .  S
C940        N964   1.341       .  A
C940        H969   1.077       .  S
C940        C944   1.466       .  S
Co941       N959   2.089       .  S
Co941       N949   2.091       .  S
Co941       N981   2.093       .  S
Co941       N957   2.111       .  S
Co941      Cl985   2.457       .  S
N942        C980   1.338       .  A
N942        N949   1.317       .  A
N942       Co943   2.081       .  S
Co943       N946   2.076       .  S
Co943       N963   2.072       .  S
Co943       N950   2.103       .  S
Co943      Cl985   2.453       .  S
C944        N982   1.350       .  A
C944       C1637   1.491       .  S
N945        N952   1.316       .  A
N945        N975   1.323       .  A
N945       Co978   2.073       .  S
N946        N964   1.316       .  A
N946        N982   1.324       .  A
N947        C976   1.358       .  A
N947        N957   1.328       .  A
H948        C973   1.075       .  S
N949        N970   1.326       .  A
N950        N968   1.320       .  A
N950        N955   1.326       .  A
C951        N955   1.355       .  A
C951        C979   1.466       .  S
C951       C1509   1.497       .  S
N952        C967   1.337       .  A
N952       Co974   2.084       .  S
C953        N981   1.343       .  A
C953        H987   1.082       .  S
C953        C956   1.467       .  S
C956        N977   1.355       .  A
C956       C1525   1.501       .  S
N957        N963   1.320       .  A
N958        C984   1.340       .  A
N958        N960   1.324       .  A
N958       Co974   2.084       .  S
N959        C973   1.340       .  A
N960        N988   1.327       .  A
N960       Co978   2.102       .  S
H961        C984   1.082       .  S
H962        C979   1.082       .  S
N964       Co978   2.090       .  S
N965        N977   1.327       .  A
N965        N981   1.322       .  A
N965       Co974   2.107       .  S
C966        N970   1.354       .  A
C966        C980   1.462       .  S
C966       C1458   1.493       .  S
C967        H971   1.074       .  S
C967        C986   1.467       .  S
N968        C979   1.341       .  A
N968       Co978   2.085       .  S
C972        N988   1.351       .  A
C972        C984   1.455       .  S
C972       C1573   1.478       .  S
Co974      Cl985   2.450       .  S
N975        C986   1.351       .  A
C976       C1589   1.490       .  S
Co978      Cl985   2.457       .  S
C986       C1445   1.492       .  S
C989       N1007   1.356       .  A
C989       C1026   1.460       .  S
C989       C1717   1.490       .  S
N990       N1007   1.328       .  A
N990       N1012   1.320       .  A
N990      Co1027   2.104       .  S
C991       N1016   1.340       .  A
C991       H1036   1.077       .  S
C991       C1029   1.463       .  S
H992       C1033   1.080       .  S
C993       N1017   1.339       .  A
C993       H1022   1.082       .  S
C993        C997   1.456       .  S
Co994      N1012   2.077       .  S
Co994      N1002   2.085       .  S
Co994      N1034   2.074       .  S
Co994      N1010   2.080       .  S
Co994     Cl1038   2.447       .  S
N995       C1033   1.337       .  A
N995       N1002   1.321       .  A
N995       Co996   2.089       .  S
Co996       N999   2.113       .  S
Co996      N1016   2.082       .  S
Co996      N1003   2.081       .  S
Co996     Cl1038   2.459       .  S
C997       N1035   1.357       .  A
C997       C1698   1.483       .  S
N998       N1005   1.321       .  A
N998       N1028   1.323       .  A
N998      Co1031   2.083       .  S
N999       N1017   1.320       .  A
N999       N1035   1.330       .  A
N1000      C1029   1.350       .  A
N1000      N1010   1.323       .  A
H1001      C1026   1.081       .  S
N1002      N1023   1.326       .  A
N1003      N1021   1.317       .  A
N1003      N1008   1.324       .  A
C1004      N1008   1.351       .  A
C1004      C1032   1.461       .  S
C1004      C1413   1.484       .  S
N1005      C1020   1.340       .  A
N1005     Co1027   2.084       .  S
C1006      N1034   1.337       .  A
C1006      H1040   1.076       .  S
C1006      C1009   1.461       .  S
C1009      N1030   1.352       .  A
C1009      C1429   1.486       .  S
N1010      N1016   1.317       .  A
N1011      C1037   1.338       .  A
N1011      N1013   1.317       .  A
N1011     Co1027   2.078       .  S
N1012      C1026   1.338       .  A
N1013      N1041   1.324       .  A
N1013     Co1031   2.080       .  S
H1014      C1037   1.077       .  S
H1015      C1032   1.077       .  S
N1017     Co1031   2.079       .  S
N1018      N1030   1.324       .  A
N1018      N1034   1.316       .  A
N1018     Co1027   2.083       .  S
C1019      N1023   1.350       .  A
C1019      C1033   1.464       .  S
C1019      C1378   1.483       .  S
C1020      H1024   1.082       .  S
C1020      C1039   1.461       .  S
N1021      C1032   1.338       .  A
N1021     Co1031   2.078       .  S
C1025      N1041   1.350       .  A
C1025      C1037   1.461       .  S
C1025      C1621   1.485       .  S
Co1027    Cl1038   2.459       .  S
N1028      C1039   1.348       .  A
C1029      C1602   1.486       .  S
Co1031    Cl1038   2.443       .  S
C1039      C1394   1.470       .  S
C1042      N1060   1.344       .  A
C1042      C2807   1.471       .  S
C1042      C1493   1.486       .  S
N1043      N1060   1.318       .  A
N1043      N2793   1.322       .  A
N1043     Co1080   2.070       .  S
C1044      N1069   1.338       .  A
C1044      H1089   1.079       .  S
C1044      C1082   1.464       .  S
H1045      C1086   1.081       .  S
C1046      N1070   1.342       .  A
C1046      H1075   1.081       .  S
C1046      C1050   1.467       .  S
Co1047     N1065   2.101       .  S
Co1047     N1055   2.084       .  S
Co1047     N1087   2.069       .  S
Co1047     N1063   2.091       .  S
Co1047    Cl1955   2.457   1_565  S
N1048      C1086   1.341       .  A
N1048     Co1049   2.087       .  S
Co1049     N1052   2.085       .  S
Co1049     N1069   2.077       .  S
Co1049     N1056   2.091       .  S
Co1049    Cl2819   2.447   1_455  S
C1050      N2816   1.351       .  A
C1050      C1477   1.488       .  S
N1051      N1081   1.323       .  A
N1051     Co1084   2.081       .  S
N1052      N2798   1.320   1_455  A
N1052      N1088   1.323       .  A
N1053      N1063   1.326       .  A
H1054      C1079   1.082       .  S
N1055      N1076   1.324       .  A
N1056      N2802   1.317   1_455  A
N1056      N1061   1.325       .  A
C1057      N2789   1.353       .  A
C1057      C1085   1.455       .  S
C1057      C1346   1.487       .  S
N1058      C1073   1.349       .  A
N1058     Co1080   2.121       .  S
C1059      N1087   1.336       .  A
C1059      H1093   1.079       .  S
C1059      C2790   1.457       .  S
N1061      C2785   1.353   1_455  A
C1062      N1083   1.359       .  A
C1062      C2787   1.464       .  S
C1062      C1362   1.509       .  S
N1064      C1090   1.333       .  A
N1064     Co1080   2.052       .  S
N1065      C1079   1.345       .  A
N1065      N2771   1.320   1_455  A
N1066      N1094   1.326       .  A
N1066     Co1084   2.087       .  S
H1067      C1090   1.077       .  S
H1068      C1085   1.081       .  S
N1070      N2780   1.320       .  A
N1070     Co1084   2.092       .  S
N1071      N1083   1.330       .  A
N1071      N2815   1.317       .  A
N1071     Co1080   2.115       .  S
C1072      C1086   1.459       .  S
C1072      C1557   1.473       .  S
C1073      H1077   1.081       .  S
N1074      C1085   1.336       .  A
N1074      N2784   1.317       .  A
N1074     Co1084   2.064       .  S
C1078      N1094   1.351       .  A
C1078      C1330   1.469       .  S
C1079      C2770   1.473       .  S
N1081      C1092   1.349       .  A
C1082      C1314   1.497       .  S
Co1084    Cl1091   2.455       .  S
N1087      N2799   1.317   1_455  A
N1088      C2778   1.349   1_455  A
Cl1091    Co1911   2.463       .  S
Cl1091    Co2777   2.448       .  S
C1092      C1538   1.500       .  S
C1095      N1113   1.350       .  A
C1095      C1682   1.477       .  S
N1096      N1113   1.325       .  A
N1096     Co1133   2.091       .  S
C1097      N1122   1.341       .  A
C1097      H1142   1.075       .  S
C1097      C1135   1.465       .  S
H1098      C1139   1.082       .  S
C1099      N1123   1.336       .  A
C1099      H1128   1.077       .  S
C1099      C1103   1.460       .  S
Co1100     N1118   2.093       .  S
Co1100     N1108   2.093       .  S
Co1100     N1140   2.075       .  S
Co1100     N1116   2.083       .  S
Co1100    Cl2008   2.456   1_565  S
N1101      C1139   1.337       .  A
N1101      N2836   1.322       .  A
N1101     Co1102   2.094       .  S
Co1102     N1105   2.108       .  S
Co1102     N1122   2.090       .  S
Co1102     N1109   2.083       .  S
C1103      C1666   1.493       .  S
N1104      N2839   1.323       .  A
N1104      N1134   1.326       .  A
N1104     Co1137   2.092       .  S
N1105      N1141   1.327       .  A
N1106      C2863   1.352   1_455  A
N1106      N1116   1.324       .  A
H1107      C1132   1.082       .  S
N1108      N2829   1.322   1_455  A
N1108      N1129   1.328       .  A
N1109      N1114   1.325       .  A
C1110      C1138   1.461       .  S
C1110      C1298   1.479       .  S
N1111      C1126   1.343       .  A
N1111      N2832   1.322   1_455  A
N1111     Co1133   2.098       .  S
C1112      N1140   1.338       .  A
C1112      H1146   1.080       .  S
C1115      N1136   1.354       .  A
C1115      C1285   1.500       .  S
N1116      N2850   1.316   1_455  A
N1117      C1143   1.338       .  A
N1117      N2847   1.318   1_455  A
N1117     Co1133   2.079       .  S
N1118      C1132   1.342       .  A
N1119      N2845   1.318       .  A
N1119      N1147   1.325       .  A
N1119     Co1137   2.076       .  S
H1120      C1143   1.079       .  S
H1121      C1138   1.081       .  S
N1122      N2844   1.317       .  A
N1123     Co1137   2.073       .  S
N1124      N1136   1.326       .  A
N1124     Co1133   2.094       .  S
C1125      N2857   1.355       .  A
C1125      C1139   1.466       .  S
C1125      C1218   1.503       .  S
C1126      H1130   1.081       .  S
C1126      C2873   1.462       .  S
N1127      C1138   1.341       .  A
N1127     Co1137   2.084       .  S
N1129      C2853   1.352   1_455  A
C1131      N1147   1.349       .  A
C1131      C2871   1.458       .  S
C1131      C1250   1.481       .  S
Co1133    Cl2872   2.454       .  S
N1134      C1145   1.348       .  A
C1135      N2834   1.352       .  A
C1135      C1269   1.490       .  S
Co1137    Cl1144   2.454       .  S
C1143      C2859   1.458       .  S
Cl1144    Co1964   2.457       .  S
Cl1144    Co2861   2.451       .  S
C1145      C2854   1.463       .  S
C1145      C1234   1.484       .  S
N1148      C1153   1.345   1_455  A
N1148      C1152   1.348   1_455  A
N1148      H1180   1.042       .  S
N1149      C1156   1.350       .  A
N1149      C1157   1.347       .  A
N1150      C1155   1.349       .  A
N1150      C1154   1.348       .  A
N1150      H1181   1.043       .  S
N1151      C1158   1.347       .  A
N1151      C1159   1.349       .  A
C1152      C1160   1.387       .  A
C1152      C1168   1.406   1_655  A
C1153      C1169   1.401       .  A
C1153      C1161   1.386       .  A
C1154      C1162   1.388   1_455  A
C1154      C1171   1.409       .  A
C1155      C1170   1.407       .  A
C1155      C1163   1.385   1_455  A
C1156      C1168   1.411       .  A
C1156      C1164   1.386       .  A
C1157      C1171   1.410       .  A
C1157      C1165   1.387       .  A
C1158      C1166   1.387       .  A
C1158      C1169   1.407   1_455  A
C1159      C1167   1.386       .  A
C1159      C1170   1.408       .  A
C1160      C1161   1.379       .  A
C1160      H1172   1.083       .  S
C1161      H1173   1.082       .  S
C1162      C1163   1.381       .  A
C1162      H1174   1.082       .  S
C1163      H1175   1.082       .  S
C1164      C1165   1.373       .  A
C1164      H1176   1.082       .  S
C1165      H1177   1.083       .  S
C1166      C1167   1.371       .  A
C1166      H1178   1.082       .  S
C1167      H1179   1.082       .  S
C1168      C1253   1.486       .  S
C1169      C1349   1.468       .  S
C1170      C1365   1.485       .  S
C1171      C1266   1.480       .  S
N1182      C1187   1.350       .  A
N1182      C1186   1.352       .  A
N1182      H1214   1.039   1_565  S
N1183      C1190   1.348       .  A
N1183      C1191   1.348       .  A
N1184      C1189   1.350       .  A
N1184      C1188   1.349       .  A
N1184      H1215   1.041   1_565  S
N1185      C1192   1.351       .  A
N1185      C1193   1.350       .  A
C1186      C1194   1.387       .  A
C1186      C1202   1.414   1_565  A
C1187      C1203   1.412       .  A
C1187      C1195   1.386       .  A
C1188      C1196   1.388       .  A
C1188      C1205   1.410   1_565  A
C1189      C1204   1.409       .  A
C1189      C1197   1.386       .  A
C1190      C1202   1.410       .  A
C1190      C1198   1.387       .  A
C1191      C1205   1.409       .  A
C1191      C1199   1.387       .  A
C1192      C1200   1.386       .  A
C1192      C1203   1.410       .  A
C1193      C1201   1.386       .  A
C1193      C1204   1.410       .  A
C1194      C1195   1.381       .  A
C1194      H1206   1.082       .  S
C1195      H1207   1.082       .  S
C1196      C1197   1.380       .  A
C1196      H1208   1.082       .  S
C1197      H1209   1.082       .  S
C1198      C1199   1.368       .  A
C1198      H1210   1.082       .  S
C1199      H1211   1.083       .  S
C1200      C1201   1.370       .  A
C1200      H1212   1.082   1_565  S
C1201      H1213   1.082   1_565  S
C1202      C1317   1.484       .  S
C1203      C1282   1.484       .  S
C1204      C1301   1.483       .  S
C1205      C1333   1.478       .  S
C1216      C1221   1.618       .  S
C1216      C1237   1.605       .  S
C1216      C1381   1.590   1_655  S
C1216      C3125   1.594       .  S
C1217      C1218   1.392       .  A
C1217      C1222   1.413       .  A
C1217      H1224   1.081       .  S
C1218      C2947   1.412       .  A
C1219      C1226   1.519       .  S
C1219      C2946   1.414   1_455  A
C1219      C1220   1.415       .  A
C1220      C1221   1.430   1_455  A
C1220      H1225   1.078       .  S
C1221      C2950   1.458       .  A
C1222      C1223   1.533       .  S
C1222      C2949   1.461       .  A
C1223      F1227   1.387       .  S
C1223      F1228   1.378       .  S
C1223      F1229   1.371       .  S
C1226      F1230   1.383       .  S
C1226      F1231   1.383       .  S
C1226      F1232   1.385       .  S
C1233      C1234   1.385       .  A
C1233      C1238   1.412       .  A
C1233      H1240   1.083       .  S
C1234      C2963   1.407       .  A
C1235      C1242   1.519       .  S
C1235      C2962   1.405   1_655  A
C1235      C1236   1.407       .  A
C1236      C1237   1.423       .  A
C1236      H1241   1.075       .  S
C1237      C2966   1.462   1_655  A
C1238      C1239   1.534       .  S
C1238      C2965   1.463       .  A
C1239      F1243   1.386       .  S
C1239      F1244   1.373       .  S
C1239      F1245   1.373       .  S
C1242      F1246   1.383   1_655  S
C1242      F1247   1.382       .  S
C1242      F1248   1.384       .  S
C1249      C2978   1.402   1_455  A
C1249      C1254   1.405       .  A
C1249      H1256   1.080       .  S
C1250      C2977   1.406       .  A
C1250      C1251   1.420       .  A
C1251      C1258   1.520       .  S
C1251      C1252   1.406       .  A
C1252      C2981   1.402       .  A
C1252      H1257   1.083       .  S
C1253      C2980   1.404   1_455  A
C1253      C1254   1.417       .  A
C1254      C1255   1.522       .  S
C1255      F1259   1.380       .  S
C1255      F1260   1.383       .  S
C1255      F1261   1.384       .  S
C1258      F1262   1.382       .  S
C1258      F1263   1.384       .  S
C1258      F1264   1.385       .  S
C1265      C2994   1.401       .  A
C1265      C1270   1.405       .  A
C1265      H1272   1.084       .  S
C1266      C2993   1.400   1_455  A
C1266      C1267   1.411       .  A
C1267      C1274   1.518       .  S
C1267      C1268   1.405       .  A
C1268      C2997   1.408   1_455  A
C1268      H1273   1.083       .  S
C1269      C2996   1.411       .  A
C1269      C1270   1.423       .  A
C1270      C1271   1.520       .  S
C1271      F1275   1.385       .  S
C1271      F1276   1.383       .  S
C1271      F1277   1.381       .  S
C1274      F1278   1.383       .  S
C1274      F1279   1.382       .  S
C1274      F1280   1.385       .  S
C1281      C1282   1.397   1_545  A
C1281      C1286   1.406       .  A
C1281      H1288   1.083       .  S
C1283      C1290   1.522       .  S
C1283      C1284   1.404       .  A
C1284      C1285   1.411       .  A
C1284      H1289   1.078       .  S
C1286      C1287   1.514       .  S
C1287      F1291   1.385       .  S
C1287      F1293   1.383       .  S
C1290      F1294   1.384       .  S
C1290      F1296   1.381       .  S
C1297      C1302   1.406       .  A
C1297      H1304   1.083       .  S
C1298      C1299   1.418       .  A
C1299      C1306   1.517       .  S
C1299      C1300   1.403       .  A
C1300      H1305   1.084       .  S
C1301      C1302   1.415       .  A
C1302      C1303   1.518       .  S
C1303      F1307   1.384       .  S
C1303      F1308   1.381       .  S
C1303      F1309   1.384       .  S
C1306      F1310   1.382       .  S
C1306      F1311   1.382       .  S
C1306      F1312   1.384       .  S
C1313      C1318   1.405       .  A
C1313      H1320   1.071       .  S
C1314      C1315   1.424       .  A
C1315      C1322   1.519       .  S
C1315      C1316   1.408       .  A
C1316      H1321   1.083       .  S
C1317      C1318   1.408       .  A
C1318      C1319   1.521       .  S
C1319      F1325   1.382       .  S
C1322      F1326   1.380       .  S
C1329      C1330   1.406       .  A
C1329      C1334   1.408       .  A
C1329      H1336   1.083       .  S
C1331      C1338   1.521       .  S
C1331      C1332   1.398       .  A
C1332      C1333   1.399   1_565  A
C1332      H1337   1.084       .  S
C1334      C1335   1.518       .  S
C1335      F1341   1.382       .  S
C1338      F1342   1.383       .  S
C1345      C1346   1.409       .  A
C1345      C1350   1.403       .  A
C1345      H1352   1.081       .  S
C1346      C3075   1.422       .  A
C1347      C1354   1.510       .  S
C1347      C3074   1.417   1_455  A
C1347      C1348   1.401       .  A
C1348      C1349   1.396   1_455  A
C1348      H1353   1.084       .  S
C1349      C3078   1.411       .  A
C1350      C1351   1.519       .  S
C1350      C3077   1.411       .  A
C1351      F1355   1.385       .  S
C1351      F1356   1.383       .  S
C1351      F1357   1.381       .  S
C1354      F1358   1.384       .  S
C1354      F1359   1.382       .  S
C1354      F1360   1.383       .  S
C1361      C3090   1.407   1_455  A
C1361      C1366   1.404       .  A
C1361      H1368   1.082       .  S
C1362      C3089   1.413       .  A
C1362      C1363   1.427       .  A
C1363      C1370   1.516       .  S
C1363      C1364   1.413       .  A
C1364      C3093   1.400       .  A
C1364      H1369   1.083       .  S
C1365      C3092   1.404   1_455  A
C1365      C1366   1.414       .  A
C1366      C1367   1.521       .  S
C1367      F1371   1.385       .  S
C1367      F1372   1.381       .  S
C1367      F1373   1.384       .  S
C1370      F1374   1.382       .  S
C1370      F1375   1.383       .  S
C1370      F1376   1.385       .  S
C1377      C1378   1.405       .  A
C1377      C1382   1.421       .  A
C1377      H1384   1.083       .  S
C1378      C1379   1.404       .  A
C1379      C1386   1.526       .  S
C1379      C1380   1.398       .  A
C1380      C1381   1.430       .  A
C1380      H1385   1.075       .  S
C1381      C1382   1.442       .  A
C1382      C1383   1.524       .  S
C1383      F1387   1.385       .  S
C1383      F1388   1.381       .  S
C1383      F1389   1.373   1_455  S
C1386      F1390   1.384       .  S
C1386      F1391   1.379       .  S
C1386      F1392   1.385       .  S
C1393      C1394   1.393       .  A
C1393      C1398   1.413       .  A
C1393      H1400   1.086       .  S
C1394      C1395   1.398       .  A
C1395      C1402   1.520       .  S
C1395      C1396   1.404       .  A
C1396      C1397   1.429       .  A
C1396      H1401   1.078       .  S
C1397      C2944   1.588       .  S
C1397      C1398   1.457       .  A
C1398      C1399   1.528       .  S
C1399      F1403   1.387       .  S
C1399      F1404   1.363       .  S
C1399      F1405   1.382       .  S
C1402      F1406   1.383       .  S
C1402      F1407   1.384       .  S
C1402      F1408   1.384       .  S
C1409      C1410   1.401       .  A
C1409      C1414   1.403       .  A
C1409      H1416   1.084       .  S
C1410      C1411   1.417       .  A
C1411      C1418   1.518       .  S
C1411      C1412   1.403       .  A
C1412      C1413   1.405       .  A
C1412      H1417   1.084       .  S
C1413      C1414   1.421       .  A
C1414      C1415   1.517       .  S
C1415      F1419   1.386       .  S
C1415      F1420   1.380       .  S
C1415      F1421   1.384       .  S
C1418      F1422   1.383       .  S
C1418      F1423   1.382       .  S
C1418      F1424   1.383       .  S
C1425      C1426   1.398       .  A
C1425      C1430   1.401       .  A
C1425      H1432   1.084       .  S
C1426      C1427   1.412       .  A
C1427      C1434   1.519       .  S
C1427      C1428   1.406       .  A
C1428      C1429   1.408       .  A
C1428      H1433   1.082       .  S
C1429      C1430   1.423       .  A
C1430      C1431   1.518       .  S
C1431      F1435   1.385       .  S
C1431      F1436   1.381       .  S
C1431      F1437   1.383       .  S
C1434      F1438   1.381       .  S
C1434      F1439   1.383       .  S
C1434      F1440   1.384       .  S
C1441      C1442   1.399       .  A
C1441      C1446   1.402       .  A
C1441      H1448   1.084       .  S
C1442      C1443   1.414       .  A
C1443      C1450   1.520       .  S
C1443      C1444   1.404       .  A
C1444      C1445   1.411       .  A
C1444      H1449   1.084       .  S
C1445      C1446   1.424       .  A
C1446      C1447   1.516       .  S
C1447      F1451   1.385       .  S
C1447      F1452   1.383       .  S
C1447      F1453   1.381       .  S
C1450      F1454   1.382       .  S
C1450      F1455   1.383       .  S
C1450      F1456   1.382       .  S
C1457      C1458   1.408       .  A
C1457      C1462   1.408       .  A
C1457      H1464   1.083       .  S
C1458      C1459   1.425       .  A
C1459      C1466   1.518       .  S
C1459      C1460   1.405       .  A
C1460      C1461   1.399       .  A
C1460      H1465   1.084       .  S
C1461      C1462   1.414       .  A
C1462      C1463   1.518       .  S
C1463      F1467   1.384       .  S
C1463      F1468   1.383       .  S
C1463      F1469   1.381       .  S
C1466      F1470   1.383       .  S
C1466      F1471   1.381       .  S
C1466      F1472   1.386       .  S
C1473      C3202   1.422       .  A
C1473      C1478   1.407       .  A
C1473      H1480   1.072       .  S
C1474      C2629   1.596       .  S
C1474      C3201   1.423       .  A
C1474      C1475   1.455       .  A
C1475      C1482   1.536       .  S
C1475      C1476   1.415       .  A
C1476      C1477   1.397       .  A
C1476      H1481   1.081       .  S
C1477      C3206   1.407       .  A
C1478      C1479   1.523       .  S
C1478      C3205   1.413       .  A
C1479      F1483   1.385       .  S
C1479      F1484   1.382       .  S
C1479      F1485   1.383       .  S
C1482      F1486   1.375       .  S
C1482      F1487   1.385       .  S
C1482      F1488   1.380       .  S
C1489      C1490   1.417       .  A
C1489      C1494   1.400       .  A
C1489      H1496   1.073       .  S
C1490      C2629   1.589       .  S
C1490      C3219   1.456       .  A
C1491      C1498   1.535       .  S
C1491      C3218   1.453   1_455  A
C1491      C1492   1.414       .  A
C1492      C3221   1.397       .  A
C1492      H1497   1.081       .  S
C1493      C3220   1.398       .  A
C1493      C1494   1.411       .  A
C1494      C1495   1.523       .  S
C1495      F1499   1.385       .  S
C1495      F1500   1.382       .  S
C1495      F1501   1.384       .  S
C1498      F1502   1.375       .  S
C1498      F1503   1.385       .  S
C1498      F1504   1.380       .  S
C1505      C1506   1.425       .  A
C1505      C1510   1.405       .  A
C1505      H1512   1.071       .  S
C1506      C1507   1.451       .  A
C1507      C1514   1.535       .  S
C1507      C1508   1.417       .  A
C1508      C1509   1.401       .  A
C1508      H1513   1.080       .  S
C1509      C1510   1.409       .  A
C1510      C1511   1.520       .  S
C1511      F1515   1.386       .  S
C1511      F1516   1.383       .  S
C1511      F1517   1.381       .  S
C1514      F1518   1.374       .  S
C1514      F1519   1.380   1_455  S
C1514      F1520   1.385       .  S
C1521      C1522   1.425       .  A
C1521      C1526   1.409       .  A
C1521      H1528   1.072       .  S
C1522      C2629   1.603       .  S
C1522      C1523   1.455       .  A
C1523      C1530   1.538       .  S
C1523      C1524   1.420       .  A
C1524      C1525   1.401       .  A
C1524      H1529   1.081       .  S
C1525      C1526   1.410       .  A
C1526      C1527   1.522       .  S
C1527      F1531   1.385       .  S
C1527      F1532   1.384       .  S
C1527      F1533   1.382       .  S
C1530      F1534   1.374       .  S
C1530      F1535   1.379       .  S
C1530      F1536   1.385       .  S
C1537      C1538   1.397       .  A
C1537      C1542   1.418       .  A
C1537      H1544   1.083       .  S
C1539      C1546   1.525       .  S
C1539      C1540   1.407       .  A
C1540      H1545   1.071       .  S
C1541      C1542   1.453       .  A
C1542      C1543   1.527       .  S
C1543      F1547   1.383       .  S
C1543      F1548   1.386       .  S
C1546      F1551   1.384       .  S
C1546      F1552   1.385       .  S
C1553      C1558   1.409       .  A
C1553      H1560   1.076       .  S
C1554      C1555   1.462       .  A
C1555      C1562   1.537       .  S
C1555      C1556   1.409       .  A
C1556      C1557   1.385       .  A
C1556      H1561   1.083       .  S
C1558      C1559   1.519       .  S
C1559      F1563   1.384       .  S
C1559      F1564   1.383       .  S
C1559      F1565   1.383   1_545  S
C1562      F1566   1.380       .  S
C1562      F1567   1.374       .  S
C1562      F1568   1.386       .  S
C1569      C1570   1.422       .  A
C1569      C1574   1.410       .  A
C1569      H1576   1.076       .  S
C1570      C1571   1.462       .  A
C1571      C1578   1.537       .  S
C1571      C1572   1.410       .  A
C1572      C1573   1.386       .  A
C1572      H1577   1.083       .  S
C1573      C1574   1.407       .  A
C1574      C1575   1.518       .  S
C1575      F1579   1.384       .  S
C1575      F1580   1.383       .  S
C1575      F1581   1.382       .  S
C1578      F1582   1.381       .  S
C1578      F1583   1.374       .  S
C1578      F1584   1.386       .  S
C1585      C1586   1.425       .  A
C1585      C1590   1.401       .  A
C1585      H1592   1.075       .  S
C1586      C1587   1.454       .  A
C1587      C1594   1.528       .  S
C1587      C1588   1.415       .  A
C1588      C1589   1.395       .  A
C1588      H1593   1.085       .  S
C1589      C1590   1.409       .  A
C1590      C1591   1.521       .  S
C1591      F1595   1.384       .  S
C1591      F1596   1.382       .  S
C1591      F1597   1.380       .  S
C1594      F1598   1.366   1_565  S
C1594      F1599   1.384       .  S
C1594      F1600   1.385       .  S
C1601      C1602   1.407       .  A
C1601      C1606   1.404       .  A
C1601      H1608   1.083       .  S
C1602      C1603   1.423       .  A
C1603      C1610   1.518       .  S
C1603      C1604   1.405       .  A
C1604      C1605   1.399       .  A
C1604      H1609   1.084       .  S
C1605      C1606   1.413       .  A
C1606      C1607   1.519       .  S
C1607      F1611   1.381       .  S
C1607      F1612   1.383       .  S
C1607      F1613   1.385       .  S
C1610      F1614   1.381       .  S
C1610      F1615   1.383       .  S
C1610      F1616   1.385       .  S
C1617      C1618   1.401       .  A
C1617      C1622   1.402       .  A
C1617      H1624   1.084       .  S
C1618      C1619   1.417       .  A
C1619      C1626   1.518       .  S
C1619      C1620   1.404       .  A
C1620      C1621   1.406       .  A
C1620      H1625   1.084       .  S
C1621      C1622   1.421       .  A
C1622      C1623   1.517       .  S
C1623      F1627   1.385       .  S
C1623      F1628   1.381       .  S
C1623      F1629   1.383       .  S
C1626      F1630   1.383       .  S
C1626      F1631   1.382       .  S
C1626      F1632   1.383       .  S
C1633      C1634   1.398       .  A
C1633      C1638   1.404       .  A
C1633      H1640   1.084       .  S
C1634      C1635   1.414       .  A
C1635      C1642   1.519       .  S
C1635      C1636   1.407       .  A
C1636      C1637   1.409       .  A
C1636      H1641   1.082       .  S
C1637      C1638   1.423       .  A
C1638      C1639   1.516       .  S
C1639      F1643   1.386       .  S
C1639      F1644   1.383       .  S
C1639      F1645   1.381       .  S
C1642      F1646   1.381       .  S
C1642      F1647   1.385       .  S
C1642      F1648   1.383       .  S
C1649      C1650   1.399       .  A
C1649      C1654   1.406       .  A
C1649      H1656   1.084       .  S
C1650      C1651   1.410       .  A
C1651      C1658   1.520       .  S
C1651      C1652   1.408       .  A
C1652      C1653   1.413       .  A
C1652      H1657   1.082       .  S
C1653      C1654   1.426       .  A
C1654      C1655   1.518       .  S
C1655      F1659   1.385       .  S
C1655      F1660   1.383       .  S
C1655      F1661   1.381       .  S
C1658      F1662   1.383       .  S
C1658      F1663   1.381       .  S
C1658      F1664   1.383       .  S
C1665      C1666   1.396       .  A
C1665      C1670   1.414       .  A
C1665      H1672   1.082       .  S
C1667      C1674   1.523       .  S
C1667      C1668   1.408       .  A
C1668      H1673   1.072       .  S
C1669      C1670   1.453       .  A
C1670      C1671   1.533       .  S
C1671      F1677   1.386       .  S
C1674      F1678   1.382       .  S
C1681      C1686   1.421       .  A
C1681      H1688   1.084       .  S
C1682      C1683   1.398       .  A
C1683      C1690   1.519       .  S
C1683      C1684   1.401       .  A
C1684      C1685   1.427       .  A
C1684      H1689   1.072       .  S
C1686      C1687   1.536       .  S
C1687      F1693   1.380   1_545  S
C1690      F1694   1.384       .  S
C1697      C1698   1.394       .  A
C1697      C1702   1.421       .  A
C1697      H1704   1.084       .  S
C1698      C1699   1.400       .  A
C1699      C1706   1.519       .  S
C1699      C1700   1.404       .  A
C1700      C1701   1.427       .  A
C1700      H1705   1.072       .  S
C1701      C1702   1.461       .  A
C1702      C1703   1.537       .  S
C1703      F1707   1.386       .  S
C1703      F1708   1.373       .  S
C1703      F1709   1.378       .  S
C1706      F1710   1.383       .  S
C1706      F1711   1.383       .  S
C1706      F1712   1.385       .  S
C1713      C1714   1.428       .  A
C1713      C1718   1.405       .  A
C1713      H1720   1.072       .  S
C1714      C1715   1.452       .  A
C1715      C1722   1.531       .  S
C1715      C1716   1.418       .  A
C1716      C1717   1.397       .  A
C1716      H1721   1.082       .  S
C1717      C1718   1.409       .  A
C1718      C1719   1.524       .  S
C1719      F1723   1.385       .  S
C1719      F1724   1.383       .  S
C1719      F1725   1.382       .  S
C1722      F1726   1.381       .  S
C1722      F1727   1.374   1_565  S
C1722      F1728   1.386       .  S
C1729      C3397   1.595       .  S
C1729      C3413   1.603       .  S
C1729      C3429   1.604       .  S
C1729      C2578   1.587       .  S
N1730      C1735   1.349   1_554  A
N1730      C1734   1.351       .  A
N1730      H1762   1.042       .  S
N1731      C1739   1.348       .  A
N1732      C1737   1.350       .  A
N1732      C1736   1.351   1_556  A
N1732      H1763   1.042       .  S
N1733      C1741   1.350   1_455  A
C1734      C1742   1.386       .  A
C1734      C1750   1.410       .  A
C1735      C1751   1.411       .  A
C1735      C1743   1.388       .  A
C1736      C1744   1.387       .  A
C1736      C1753   1.410       .  A
C1737      C1752   1.409       .  A
C1737      C1745   1.387       .  A
C1738      C1750   1.410       .  A
C1738      C1746   1.385       .  A
C1739      C1753   1.409       .  A
C1739      C1747   1.387       .  A
C1740      C1748   1.388       .  A
C1740      C1751   1.410       .  A
C1741      C1749   1.385       .  A
C1741      C1752   1.407       .  A
C1742      C1743   1.381   1_554  A
C1742      H1754   1.082       .  S
C1743      H1755   1.082       .  S
C1744      C1745   1.379   1_554  A
C1744      H1756   1.082       .  S
C1745      H1757   1.082       .  S
C1746      H1758   1.082       .  S
C1747      H1759   1.083       .  S
C1748      H1760   1.083       .  S
C1749      H1761   1.082       .  S
C1750      C2469   1.488       .  S
C1751      C2498   1.482       .  S
C1752      C2514   1.482       .  S
C1753      C2482   1.483       .  S
C1764      C2405   1.600       .  S
C1764      C2418   1.591       .  S
C1764      C2434   1.584       .  S
C1764      C3314   1.604   1_545  S
C1765      C2370   1.601       .  S
N1766      C1771   1.350       .  A
N1766      C1770   1.352   1_554  A
N1766      H1798   1.043       .  S
N1767      C2638   1.349   1_545  A
N1767      C1775   1.347       .  A
N1768      C1773   1.349       .  A
N1768      C1772   1.349   1_554  A
N1768      H1799   1.042       .  S
N1769      C2640   1.349   1_545  A
N1769      C1777   1.350       .  A
C1770      C1778   1.387       .  A
C1770      C1786   1.413       .  A
C1771      C1787   1.411       .  A
C1771      C1779   1.387       .  A
C1772      C1780   1.387       .  A
C1772      C1789   1.410       .  A
C1773      C1788   1.410       .  A
C1773      C1781   1.387       .  A
C1774      N2631   1.351       .  A
C1774      C1786   1.411       .  A
C1774      C1782   1.385       .  A
C1775      C1789   1.408       .  A
C1775      C1783   1.387       .  A
C1776      N2633   1.348       .  A
C1776      C1784   1.388       .  A
C1776      C1787   1.410       .  A
C1777      C1785   1.386       .  A
C1777      C1788   1.410       .  A
C1778      C1779   1.382   1_556  A
C1778      H1790   1.082       .  S
C1779      H1791   1.082       .  S
C1780      C1781   1.382   1_556  A
C1780      H1792   1.082       .  S
C1781      H1793   1.082       .  S
C1782      C2647   1.374       .  A
C1782      H1794   1.082       .  S
C1783      C2646   1.372   1_545  A
C1783      H1795   1.082       .  S
C1784      C2649   1.373       .  A
C1784      H1796   1.082       .  S
C1785      C2648   1.372   1_545  A
C1785      H1797   1.083       .  S
C1786      C2325   1.493       .  S
C1787      C2290   1.485       .  S
C1788      C2274   1.485       .  S
C1789      C2306   1.480       .  S
C1800      N1818   1.353       .  A
C1800      C1837   1.467       .  S
C1800      C2517   1.493       .  S
N1801      N1818   1.323       .  A
N1801      N1823   1.316       .  A
N1801     Co1838   2.084       .  S
C1802      N1827   1.340       .  A
C1802      H1847   1.076       .  S
C1802      C1840   1.469       .  S
H1803      C1844   1.077       .  S
C1804      N1828   1.338       .  A
C1804      H1833   1.078       .  S
C1804      C1808   1.457       .  S
Co1805     N1823   2.076       .  S
Co1805     N1813   2.095       .  S
Co1805     N1845   2.104       .  S
Co1805     N1821   2.091       .  S
Co1805    Cl1849   2.456       .  S
N1806      C1844   1.341       .  A
N1806      N1813   1.318       .  A
N1806     Co1807   2.082       .  S
Co1807     N1810   2.079       .  S
Co1807     N1827   2.093       .  S
Co1807     N1814   2.093       .  S
Co1807    Cl1849   2.448       .  S
C1808      N1846   1.349       .  A
C1808      C2501   1.472       .  S
N1809      N1816   1.317       .  A
N1809      N1839   1.323       .  A
N1809     Co1842   2.086       .  S
N1810      N1828   1.317       .  A
N1810      N1846   1.321       .  A
N1811      C1840   1.354       .  A
N1811      N1821   1.324       .  A
H1812      C1837   1.074       .  S
N1813      N1834   1.326       .  A
N1814      N1832   1.321       .  A
N1814      N1819   1.325       .  A
C1815      N1819   1.352       .  A
C1815      C1843   1.467       .  S
C1815      C2373   1.496       .  S
N1816      C1831   1.338       .  A
N1816     Co1838   2.068       .  S
C1817      N1845   1.346       .  A
C1817      H1851   1.082       .  S
C1817      C1820   1.470       .  S
C1820      N1841   1.348       .  A
C1820      C2389   1.493       .  S
N1821      N1827   1.320       .  A
N1822      C1848   1.342       .  A
N1822      N1824   1.322       .  A
N1822     Co1838   2.093       .  S
N1823      C1837   1.338       .  A
N1824      N1852   1.322       .  A
N1824     Co1842   2.072       .  S
H1825      C1848   1.081       .  S
H1826      C1843   1.082       .  S
N1828     Co1842   2.067       .  S
N1829      N1841   1.323       .  A
N1829      N1845   1.321       .  A
N1829     Co1838   2.080       .  S
C1830      N1834   1.353       .  A
C1830      C1844   1.463       .  S
C1830      C2322   1.491       .  S
C1831      H1835   1.077       .  S
C1831      C1850   1.458       .  S
N1832      C1843   1.345       .  A
N1832     Co1842   2.097       .  S
C1836      N1852   1.345       .  A
C1836      C1848   1.460       .  S
C1836      C2437   1.470       .  S
Co1838    Cl1849   2.449       .  S
N1839      C1850   1.352       .  A
C1840      C2453   1.498       .  S
Co1842    Cl1849   2.453       .  S
C1850      C2309   1.479       .  S
C1853      N1871   1.350       .  A
C1853      C1890   1.468       .  S
C1853      C2581   1.489       .  S
N1854      N1871   1.323       .  A
N1854      N1876   1.321       .  A
N1854     Co1891   2.079       .  S
C1855      N1880   1.337       .  A
C1855      H1900   1.076       .  S
C1855      C1893   1.460       .  S
H1856      C1897   1.079       .  S
C1857      N1881   1.342       .  A
C1857      H1886   1.082       .  S
C1857      C1861   1.462       .  S
Co1858     N1876   2.102       .  S
Co1858     N1866   2.076       .  S
Co1858     N1898   2.067       .  S
Co1858     N1874   2.099       .  S
Co1858    Cl1902   2.452       .  S
N1859      C1897   1.341       .  A
N1859      N1866   1.320       .  A
N1859     Co1860   2.098       .  S
Co1860     N1863   2.082       .  S
Co1860     N1880   2.070       .  S
Co1860     N1867   2.088       .  S
Co1860    Cl1902   2.448       .  S
C1861      N1899   1.349       .  A
C1861      C2562   1.474       .  S
N1862      N1869   1.320       .  A
N1862      N1892   1.323       .  A
N1862     Co1895   2.075       .  S
N1863      N1881   1.320       .  A
N1863      N1899   1.323       .  A
N1864      C1893   1.356       .  A
N1864      N1874   1.326       .  A
H1865      C1890   1.081       .  S
N1866      N1887   1.324       .  A
N1867      N1885   1.317       .  A
N1867      N1872   1.324       .  A
C1868      N1872   1.352       .  A
C1868      C1896   1.458       .  S
C1868      C2277   1.482       .  S
N1869      C1884   1.344       .  A
N1869     Co1891   2.100       .  S
C1870      N1898   1.337       .  A
C1870      H1904   1.078       .  S
C1870      C1873   1.457       .  S
C1873      N1894   1.351       .  A
C1873      C2293   1.479       .  S
N1874      N1880   1.317       .  A
N1875      C1901   1.337       .  A
N1875      N1877   1.317       .  A
N1875     Co1891   2.068       .  S
N1876      C1890   1.344       .  A
N1877      N1905   1.323       .  A
N1877     Co1895   2.086       .  S
H1878      C1901   1.076       .  S
H1879      C1896   1.076       .  S
N1881     Co1895   2.091       .  S
N1882      N1894   1.325       .  A
N1882      N1898   1.318       .  A
N1882     Co1891   2.090       .  S
C1883      N1887   1.349       .  A
C1883      C1897   1.468       .  S
C1883      C2242   1.486       .  S
C1884      H1888   1.082       .  S
C1884      C1903   1.465       .  S
N1885      C1896   1.338       .  A
N1885     Co1895   2.070       .  S
C1889      N1905   1.351       .  A
C1889      C1901   1.458       .  S
C1889      C2485   1.480       .  S
Co1891    Cl1902   2.451       .  S
N1892      C1903   1.347       .  A
C1893      C2466   1.491       .  S
Co1895    Cl1902   2.450       .  S
C1903      C2258   1.477       .  S
C1906      N1924   1.345   1_455  A
C1906      C2357   1.483   1_455  S
N1907      N1924   1.318       .  A
N1907     Co1944   2.059       .  S
C1908      N1933   1.329       .  A
C1908      H1953   1.077       .  S
C1908      C1946   1.454       .  S
H1909      C1950   1.081       .  S
C1910      N1934   1.343       .  A
C1910      H1939   1.081       .  S
C1910      C1914   1.466   1_655  S
Co1911     N1929   2.118       .  S
Co1911     N1919   2.099       .  S
Co1911     N1951   2.068       .  S
Co1911     N1927   2.105       .  S
N1912      C1950   1.338       .  A
N1912      N2783   1.324   1_545  A
N1912     Co1913   2.077       .  S
Co1913     N1916   2.077       .  S
Co1913     N1933   2.056       .  S
Co1913     N1920   2.092       .  S
C1914      C2341   1.496       .  S
N1915      N2786   1.319   1_545  A
N1915      N1945   1.323       .  A
N1915     Co1948   2.082       .  S
N1916      N1952   1.323       .  A
N1917      C2810   1.356       .  A
N1917      N1927   1.330       .  A
H1918      C1943   1.081       .  S
N1919      N2776   1.324       .  A
N1919      N1940   1.327       .  A
N1920      N1925   1.325       .  A
C1921      C1949   1.448       .  S
C1921      C2210   1.478       .  S
N1922      C1937   1.338       .  A
N1922      N2779   1.318       .  A
N1922     Co1944   2.076       .  S
C1923      N1951   1.335       .  A
C1923      H1957   1.078       .  S
C1926      N1947   1.352   1_455  A
C1926      C2226   1.490       .  S
N1927      N2797   1.317       .  A
N1928      C1954   1.331       .  A
N1928      N2794   1.314       .  A
N1928     Co1944   2.053       .  S
N1929      C1943   1.349       .  A
N1930      N2792   1.312   1_545  A
N1930      N1958   1.324       .  A
N1930     Co1948   2.091       .  S
H1931      C1954   1.072       .  S
H1932      C1949   1.081       .  S
N1933      N2791   1.316   1_545  A
N1934     Co1948   2.093       .  S
N1935      N1947   1.326       .  A
N1935     Co1944   2.088       .  S
C1936      N2804   1.351   1_545  A
C1936      C1950   1.451       .  S
C1936      C2421   1.472       .  S
C1937      H1941   1.081       .  S
C1937      C2820   1.463       .  S
N1938      C1949   1.334       .  A
N1938     Co1948   2.057       .  S
N1940      C2800   1.351       .  A
C1942      N1958   1.357       .  A
C1942      C2818   1.466   1_545  S
C1942      C2194   1.500       .  S
Co1944    Cl2819   2.443       .  S
N1945      C1956   1.351       .  A
C1946      N2781   1.353   1_545  A
C1946      C2178   1.484       .  S
Co1948    Cl1955   2.457   1_655  S
C1954      C2806   1.463       .  S
Cl1955    Co2808   2.444   1_445  S
C1956      C2801   1.466   1_545  S
C1956      C2402   1.490       .  S
C1959      N1977   1.348   1_565  A
C1959      C2860   1.457       .  S
C1959      C2546   1.469   1_565  S
N1960      N1977   1.324       .  A
N1960      N2846   1.323   1_545  A
N1960     Co1997   2.086       .  S
C1961      N1986   1.338       .  A
C1961      H2006   1.074       .  S
C1961      C1999   1.463       .  S
H1962      C2003   1.082       .  S
C1963      N1987   1.339       .  A
C1963      H1992   1.078       .  S
C1963      C1967   1.465       .  S
Co1964     N1982   2.095       .  S
Co1964     N1972   2.094       .  S
Co1964     N2004   2.074       .  S
Co1964     N1980   2.086       .  S
N1965      C2003   1.338       .  A
N1965     Co1966   2.095       .  S
Co1966     N1969   2.103       .  S
Co1966     N1986   2.082       .  S
Co1966     N1973   2.086       .  S
Co1966    Cl2872   2.448   1_655  S
C1967      N2869   1.354   1_545  A
C1967      C2530   1.493       .  S
N1968      N1998   1.324       .  A
N1968     Co2001   2.076       .  S
N1969      N2851   1.319       .  A
N1969      N2005   1.328       .  A
N1970      N1980   1.325       .  A
H1971      C1996   1.082       .  S
N1972      N1993   1.328       .  A
N1973      N2855   1.318       .  A
N1973      N1978   1.324       .  A
C1974      N2842   1.351   1_545  A
C1974      C2002   1.453       .  S
C1974      C2162   1.475       .  S
N1975      C1990   1.344       .  A
N1975     Co1997   2.096       .  S
C1976      N2004   1.341       .  A
C1976      H2010   1.081       .  S
C1976      C2843   1.453       .  S
N1978      C2838   1.348       .  A
C1979      N2000   1.345   1_565  A
C1979      C2840   1.455       .  S
C1979      C2149   1.464       .  S
N1981      C2007   1.342       .  A
N1981     Co1997   2.085       .  S
N1982      C1996   1.342       .  A
N1982      N2824   1.323       .  A
N1983      N2011   1.324       .  A
N1983     Co2001   2.076       .  S
H1984      C2007   1.081       .  S
H1985      C2002   1.080       .  S
N1987      N2833   1.319   1_545  A
N1987     Co2001   2.083       .  S
N1988      N2000   1.323       .  A
N1988      N2868   1.320   1_545  A
N1988     Co1997   2.075       .  S
C1989      C2003   1.467   1_455  S
C1989      C2082   1.500       .  S
C1990      H1994   1.081       .  S
N1991      C2002   1.337       .  A
N1991      N2837   1.318   1_545  A
N1991     Co2001   2.064       .  S
C1995      N2011   1.346       .  A
C1995      C2114   1.480       .  S
C1996      C2823   1.460       .  S
N1998      C2009   1.345   1_655  A
C1999      C2133   1.497   1_655  S
Co2001    Cl2008   2.457   1_655  S
N2004      N2852   1.318       .  A
N2005      C2831   1.359       .  A
Cl2008    Co2830   2.448   1_445  S
C2009      C2098   1.483       .  S
N2012      C2017   1.349       .  A
N2012      C2016   1.350       .  A
N2012      H2044   1.037       .  S
N2013      C2020   1.353       .  A
N2013      C2021   1.351       .  A
N2014      C2019   1.355       .  A
N2014      C2018   1.354       .  A
N2014      H2045   1.037       .  S
N2015      C2022   1.351       .  A
N2015      C2023   1.352       .  A
C2016      C2024   1.387       .  A
C2016      C2032   1.410       .  A
C2017      C2033   1.407       .  A
C2017      C2025   1.387       .  A
C2018      C2026   1.388       .  A
C2018      C2035   1.421       .  A
C2019      C2034   1.417       .  A
C2019      C2027   1.385       .  A
C2020      C2032   1.414       .  A
C2020      C2028   1.385       .  A
C2021      C2035   1.417       .  A
C2021      C2029   1.388       .  A
C2022      C2030   1.388       .  A
C2022      C2033   1.413       .  A
C2023      C2031   1.387       .  A
C2023      C2034   1.412       .  A
C2024      C2025   1.377       .  A
C2024      H2036   1.082       .  S
C2025      H2037   1.083       .  S
C2026      C2027   1.379       .  A
C2026      H2038   1.082       .  S
C2027      H2039   1.082       .  S
C2028      C2029   1.366       .  A
C2028      H2040   1.082       .  S
C2029      H2041   1.081       .  S
C2030      C2031   1.365       .  A
C2030      H2042   1.082       .  S
C2031      H2043   1.082       .  S
C2032      C2117   1.487       .  S
C2033      C2213   1.477       .  S
C2034      C2229   1.490       .  S
C2035      C2130   1.489       .  S
N2046      C2051   1.352       .  A
N2046      C2050   1.350       .  A
N2046      H2078   1.037       .  S
N2047      C2054   1.352       .  A
N2047      C2055   1.351       .  A
N2048      C2053   1.353       .  A
N2048      C2052   1.345       .  A
N2048      H2079   1.040       .  S
N2049      C2056   1.341       .  A
N2049      C2057   1.344       .  A
C2050      C2058   1.388       .  A
C2050      C2066   1.416       .  A
C2051      C2067   1.415       .  A
C2051      C2059   1.384       .  A
C2052      C2060   1.390       .  A
C2052      C2069   1.411       .  A
C2053      C2068   1.408       .  A
C2053      C2061   1.384       .  A
C2054      C2066   1.417       .  A
C2054      C2062   1.388       .  A
C2055      C2069   1.415       .  A
C2055      C2063   1.387       .  A
C2056      C2064   1.389       .  A
C2056      C2067   1.408       .  A
C2057      C2065   1.380       .  A
C2057      C2068   1.392       .  A
C2058      C2059   1.383       .  A
C2058      H2070   1.082       .  S
C2059      H2071   1.082       .  S
C2060      C2061   1.379       .  A
C2060      H2072   1.082       .  S
C2061      H2073   1.082       .  S
C2062      C2063   1.366       .  A
C2062      H2074   1.082       .  S
C2063      H2075   1.082       .  S
C2064      C2065   1.374       .  A
C2064      H2076   1.083       .  S
C2065      H2077   1.082       .  S
C2066      C2181   1.487       .  S
C2067      C2146   1.521       .  S
C2068      C2165   1.485       .  S
C2069      C2197   1.477       .  S
C2080      C2085   1.609       .  S
C2080      C2101   1.610       .  S
C2080      C2245   1.590       .  S
C2081      C2082   1.390   1_655  A
C2081      C2086   1.411       .  A
C2081      H2088   1.081       .  S
C2083      C2090   1.519       .  S
C2083      C2084   1.416       .  A
C2084      C2085   1.430       .  A
C2084      H2089   1.079       .  S
C2086      C2087   1.529       .  S
C2087      F2091   1.387       .  S
C2087      F2092   1.378       .  S
C2087      F2093   1.372       .  S
C2090      F2094   1.384       .  S
C2090      F2095   1.383       .  S
C2090      F2096   1.385       .  S
C2097      C2098   1.384       .  A
C2097      C2102   1.413       .  A
C2097      H2104   1.083       .  S
C2099      C2106   1.519       .  S
C2099      C2100   1.410       .  A
C2100      C2101   1.427       .  A
C2100      H2105   1.075       .  S
C2102      C2103   1.536       .  S
C2103      F2107   1.386       .  S
C2103      F2108   1.373       .  S
C2103      F2109   1.374   1_455  S
C2106      F2110   1.383       .  S
C2106      F2111   1.382       .  S
C2106      F2112   1.384       .  S
C2113      C2118   1.407       .  A
C2113      H2120   1.082       .  S
C2114      C2115   1.418       .  A
C2115      C2122   1.519       .  S
C2115      C2116   1.407       .  A
C2116      H2121   1.083       .  S
C2117      C2118   1.413       .  A
C2118      C2119   1.519       .  S
C2119      F2123   1.385       .  S
C2119      F2124   1.382       .  S
C2119      F2125   1.383       .  S
C2122      F2126   1.382       .  S
C2122      F2127   1.383       .  S
C2122      F2128   1.385       .  S
C2129      C2134   1.405       .  A
C2129      H2136   1.083       .  S
C2130      C2131   1.410       .  A
C2131      C2138   1.518       .  S
C2131      C2132   1.410       .  A
C2132      H2137   1.082       .  S
C2133      C2134   1.428   1_455  A
C2134      C2135   1.519       .  S
C2135      F2139   1.385       .  S
C2135      F2140   1.382       .  S
C2135      F2141   1.381       .  S
C2138      F2142   1.381       .  S
C2138      F2143   1.383       .  S
C2138      F2144   1.384       .  S
C2145      C2146   1.415       .  A
C2145      C2150   1.399       .  A
C2145      H2152   1.070       .  S
C2146      C3011   1.428       .  A
C2147      C2154   1.522       .  S
C2147      C3010   1.431       .  A
C2147      C2148   1.407       .  A
C2148      C2149   1.398       .  A
C2148      H2153   1.085       .  S
C2149      C3014   1.406       .  A
C2150      C2151   1.522       .  S
C2150      C3013   1.406       .  A
C2151      F2155   1.385       .  S
C2151      F3020   1.382       .  S
C2151      F2157   1.384       .  S
C2154      F2158   1.382   1_565  S
C2154      F3023   1.381       .  S
C2154      F2160   1.385       .  S
F2156      C3015   1.383       .  S
F2159      C3018   1.382       .  S
C2161      C3026   1.396       .  A
C2161      C2166   1.400       .  A
C2161      H2168   1.084       .  S
C2162      C3025   1.401   1_545  A
C2162      C2163   1.420       .  A
C2163      C2170   1.518       .  S
C2163      C2164   1.401       .  A
C2164      C3029   1.398       .  A
C2164      H2169   1.085       .  S
C2165      C3028   1.402       .  A
C2165      C2166   1.423       .  A
C2166      C2167   1.521       .  S
C2167      F2171   1.385       .  S
C2167      F2172   1.381       .  S
C2167      F2173   1.383       .  S
C2170      F2174   1.382       .  S
C2170      F2175   1.382       .  S
C2170      F2176   1.385       .  S
C2177      C3042   1.409       .  A
C2177      C2182   1.403       .  A
C2177      H2184   1.079       .  S
C2178      C3041   1.407       .  A
C2178      C2179   1.421   1_545  A
C2179      C2186   1.517       .  S
C2179      C2180   1.406       .  A
C2180      C3045   1.400   1_565  A
C2180      H2185   1.084       .  S
C2181      C3044   1.399       .  A
C2181      C2182   1.411       .  A
C2182      C2183   1.520       .  S
C2183      F3051   1.384       .  S
C2183      F3052   1.383       .  S
C2183      F2189   1.382       .  S
C2186      F2190   1.383       .  S
C2186      F3055   1.383       .  S
C2186      F3056   1.384       .  S
F2187      C3047   1.384       .  S
F2188      C3047   1.382       .  S
F2191      C3050   1.382       .  S
F2192      C3050   1.384       .  S
C2193      C2194   1.413       .  A
C2193      C2198   1.404       .  A
C2193      H2200   1.082       .  S
C2194      C3059   1.432   1_545  A
C2195      C2202   1.515       .  S
C2195      C3058   1.432       .  A
C2195      C2196   1.402       .  A
C2196      C2197   1.392       .  A
C2196      H2201   1.083       .  S
C2197      C3062   1.410       .  A
C2198      C2199   1.519       .  S
C2198      C3061   1.408       .  A
C2199      F3067   1.385       .  S
C2199      F3068   1.383       .  S
C2199      F2205   1.383       .  S
C2202      F2206   1.382       .  S
C2202      F3071   1.383       .  S
C2202      F3072   1.385       .  S
F2203      C3063   1.384       .  S
F2204      C3063   1.382       .  S
F2207      C3066   1.381       .  S
F2208      C3066   1.385       .  S
C2209      C2210   1.406       .  A
C2209      C2214   1.401       .  A
C2209      H2216   1.082       .  S
C2211      C2218   1.515       .  S
C2211      C2212   1.401       .  A
C2212      C2213   1.397       .  A
C2212      H2217   1.084       .  S
C2214      C2215   1.518       .  S
C2215      F2219   1.384       .  S
C2215      F2220   1.383       .  S
C2215      F2221   1.382       .  S
C2218      F2222   1.383       .  S
C2218      F2223   1.381       .  S
C2218      F2224   1.385       .  S
C2225      C2230   1.406       .  A
C2225      H2232   1.078       .  S
C2226      C2227   1.422   1_455  A
C2227      C2234   1.521       .  S
C2227      C2228   1.410       .  A
C2228      H2233   1.083       .  S
C2229      C2230   1.410       .  A
C2230      C2231   1.521       .  S
C2231      F2235   1.384       .  S
C2231      F2236   1.383       .  S
C2231      F2237   1.382       .  S
C2234      F2238   1.378       .  S
C2234      F2239   1.383       .  S
C2234      F2240   1.385       .  S
C2241      C2242   1.403       .  A
C2241      C2246   1.417       .  A
C2241      H2248   1.082       .  S
C2242      C2243   1.407       .  A
C2243      C2250   1.522       .  S
C2243      C2244   1.405       .  A
C2244      C2245   1.427       .  A
C2244      H2249   1.077       .  S
C2245      C2246   1.443       .  A
C2246      C2247   1.526       .  S
C2247      F2251   1.385       .  S
C2247      F2252   1.380       .  S
C2247      F2253   1.373       .  S
C2250      F2254   1.384       .  S
C2250      F2255   1.380       .  S
C2250      F2256   1.384       .  S
C2257      C2258   1.395       .  A
C2257      C2262   1.416       .  A
C2257      H2264   1.086       .  S
C2258      C2259   1.402       .  A
C2259      C2266   1.520       .  S
C2259      C2260   1.405       .  A
C2260      C2261   1.428       .  A
C2260      H2265   1.078       .  S
C2261      C2262   1.458       .  A
C2262      C2263   1.529       .  S
C2263      F2267   1.387       .  S
C2263      F2268   1.364   1_655  S
C2263      F2269   1.381       .  S
C2266      F2270   1.382       .  S
C2266      F2271   1.384       .  S
C2266      F2272   1.385       .  S
C2273      C2274   1.402       .  A
C2273      C2278   1.404       .  A
C2273      H2280   1.084       .  S
C2274      C2275   1.417       .  A
C2275      C2282   1.519       .  S
C2275      C2276   1.404       .  A
C2276      C2277   1.406       .  A
C2276      H2281   1.085       .  S
C2277      C2278   1.421       .  A
C2278      C2279   1.520       .  S
C2279      F2283   1.385       .  S
C2279      F2284   1.383       .  S
C2279      F2285   1.381       .  S
C2282      F2286   1.380       .  S
C2282      F2287   1.383       .  S
C2282      F2288   1.383       .  S
C2289      C2290   1.401       .  A
C2289      C2294   1.401       .  A
C2289      H2296   1.084       .  S
C2290      C2291   1.414       .  A
C2291      C2298   1.518       .  S
C2291      C2292   1.407       .  A
C2292      C2293   1.406       .  A
C2292      H2297   1.083       .  S
C2293      C2294   1.420       .  A
C2294      C2295   1.521       .  S
C2295      F2299   1.385       .  S
C2295      F2300   1.384       .  S
C2295      F2301   1.380       .  S
C2298      F2302   1.383       .  S
C2298      F2303   1.381       .  S
C2298      F2304   1.385       .  S
C2305      C2306   1.401       .  A
C2305      C2310   1.404       .  A
C2305      H2312   1.084       .  S
C2306      C2307   1.410       .  A
C2307      C2314   1.518       .  S
C2307      C2308   1.403       .  A
C2308      C2309   1.406       .  A
C2308      H2313   1.083       .  S
C2309      C2310   1.422       .  A
C2310      C2311   1.521       .  S
C2311      F2315   1.385       .  S
C2311      F2316   1.380       .  S
C2311      F2317   1.383       .  S
C2314      F2318   1.382       .  S
C2314      F2319   1.383       .  S
C2314      F2320   1.385       .  S
C2321      C2322   1.408       .  A
C2321      C2326   1.411       .  A
C2321      H2328   1.083       .  S
C2322      C2323   1.423       .  A
C2323      C2330   1.520       .  S
C2323      C2324   1.407       .  A
C2324      C2325   1.402       .  A
C2324      H2329   1.083       .  S
C2325      C2326   1.415       .  A
C2326      C2327   1.519       .  S
C2327      F2331   1.383       .  S
C2327      F2332   1.381       .  S
C2327      F2333   1.383       .  S
C2330      F2334   1.381       .  S
C2330      F2335   1.383       .  S
C2330      F2336   1.385       .  S
C2337      C2342   1.407       .  A
C2337      H2344   1.072       .  S
C2338      C2339   1.451       .  A
C2339      C2346   1.535       .  S
C2339      C2340   1.419       .  A
C2340      C2341   1.402   1_655  A
C2340      H2345   1.081       .  S
C2342      C2343   1.523       .  S
C2343      F2347   1.385       .  S
C2343      F2348   1.383       .  S
C2343      F2349   1.383       .  S
C2346      F2350   1.374       .  S
C2346      F2351   1.385       .  S
C2346      F2352   1.380       .  S
C2353      C2354   1.424       .  A
C2353      C2358   1.402       .  A
C2353      H2360   1.073       .  S
C2355      C2362   1.534       .  S
C2355      C2356   1.418       .  A
C2356      H2361   1.081       .  S
C2357      C2358   1.410       .  A
C2358      C2359   1.525       .  S
C2359      F2363   1.385       .  S
C2359      F2364   1.383       .  S
C2359      F2365   1.384       .  S
C2362      F2366   1.375       .  S
C2362      F2367   1.385       .  S
C2362      F2368   1.380       .  S
C2369      C2370   1.424       .  A
C2369      C2374   1.405       .  A
C2369      H2376   1.071       .  S
C2370      C2371   1.454       .  A
C2371      C2378   1.534       .  S
C2371      C2372   1.420       .  A
C2372      C2373   1.400       .  A
C2372      H2377   1.081       .  S
C2373      C2374   1.409       .  A
C2374      C2375   1.521       .  S
C2375      F2379   1.385       .  S
C2375      F2380   1.384       .  S
C2375      F2381   1.382       .  S
C2378      F2382   1.375       .  S
C2378      F2383   1.380       .  S
C2378      F2384   1.385       .  S
C2385      C2386   1.420       .  A
C2385      C2390   1.406       .  A
C2385      H2392   1.072       .  S
C2386      C2387   1.458       .  A
C2387      C2394   1.538       .  S
C2387      C2388   1.418       .  A
C2388      C2389   1.397       .  A
C2388      H2393   1.081       .  S
C2389      C2390   1.410       .  A
C2390      C2391   1.522       .  S
C2391      F2395   1.385       .  S
C2391      F2396   1.384       .  S
C2391      F2397   1.382       .  S
C2394      F2398   1.375       .  S
C2394      F2399   1.380   1_655  S
C2394      F2400   1.385       .  S
C2401      C2402   1.397   1_565  A
C2401      C2406   1.415       .  A
C2401      H2408   1.083       .  S
C2402      C3267   1.406       .  A
C2403      C2410   1.528       .  S
C2403      C3266   1.404       .  A
C2403      C2404   1.399       .  A
C2404      C3269   1.432       .  A
C2404      H2409   1.068       .  S
C2405      C3268   1.431       .  A
C2405      C2406   1.453   1_545  A
C2406      C2407   1.529       .  S
C2407      F2411   1.383       .  S
C2407      F2412   1.385       .  S
C2407      F3277   1.365       .  S
C2410      F3278   1.383       .  S
C2410      F2415   1.383       .  S
C2410      F2416   1.385       .  S
F2413      C3271   1.373       .  S
F2414      C3274   1.382       .  S
C2417      C3282   1.421       .  A
C2417      C2422   1.410       .  A
C2417      H2424   1.075       .  S
C2418      C3281   1.423       .  A
C2418      C2419   1.460       .  A
C2419      C2426   1.536       .  S
C2419      C2420   1.408       .  A
C2420      C2421   1.387       .  A
C2420      H2425   1.083       .  S
C2421      C3286   1.405       .  A
C2422      C2423   1.519       .  S
C2422      C3285   1.407       .  A
C2423      F2427   1.385       .  S
C2423      F2428   1.383       .  S
C2423      F2429   1.383       .  S
C2426      F2430   1.380       .  S
C2426      F2431   1.375       .  S
C2426      F2432   1.385       .  S
C2433      C2434   1.422       .  A
C2433      C2438   1.406       .  A
C2433      H2440   1.075       .  S
C2434      C2435   1.458       .  A
C2435      C2442   1.536       .  S
C2435      C2436   1.408       .  A
C2436      C2437   1.387       .  A
C2436      H2441   1.083       .  S
C2437      C2438   1.406       .  A
C2438      C2439   1.520       .  S
C2439      F2443   1.385       .  S
C2439      F2444   1.383       .  S
C2439      F2445   1.383       .  S
C2442      F2446   1.380       .  S
C2442      F2447   1.375       .  S
C2442      F2448   1.385       .  S
C2449      C2450   1.433       .  A
C2449      C2454   1.406       .  A
C2449      H2456   1.069       .  S
C2450      C2628   1.603       .  S
C2450      C2451   1.450       .  A
C2451      C2458   1.526       .  S
C2451      C2452   1.415       .  A
C2452      C2453   1.401       .  A
C2452      H2457   1.085       .  S
C2453      C2454   1.410       .  A
C2454      C2455   1.524       .  S
C2455      F2459   1.386       .  S
C2455      F2460   1.380       .  S
C2455      F2461   1.383       .  S
C2458      F2462   1.365       .  S
C2458      F2463   1.384       .  S
C2458      F2464   1.385       .  S
C2465      C2466   1.408       .  A
C2465      C2470   1.408       .  A
C2465      H2472   1.083       .  S
C2466      C2467   1.427       .  A
C2467      C2474   1.521       .  S
C2467      C2468   1.406       .  A
C2468      C2469   1.399       .  A
C2468      H2473   1.084       .  S
C2469      C2470   1.412       .  A
C2470      C2471   1.517       .  S
C2471      F2475   1.383       .  S
C2471      F2476   1.382       .  S
C2471      F2477   1.385       .  S
C2474      F2478   1.383       .  S
C2474      F2479   1.381       .  S
C2474      F2480   1.385       .  S
C2481      C2482   1.400       .  A
C2481      C2486   1.401       .  A
C2481      H2488   1.084       .  S
C2482      C2483   1.411       .  A
C2483      C2490   1.518       .  S
C2483      C2484   1.406       .  A
C2484      C2485   1.409       .  A
C2484      H2489   1.083       .  S
C2485      C2486   1.421       .  A
C2486      C2487   1.521       .  S
C2487      F2491   1.385       .  S
C2487      F2492   1.383       .  S
C2487      F2493   1.381       .  S
C2490      F2494   1.385       .  S
C2490      F2495   1.383       .  S
C2490      F2496   1.382       .  S
C2497      C2498   1.403       .  A
C2497      C2502   1.401       .  A
C2497      H2504   1.084       .  S
C2498      C2499   1.413       .  A
C2499      C2506   1.519       .  S
C2499      C2500   1.403       .  A
C2500      C2501   1.405       .  A
C2500      H2505   1.083       .  S
C2501      C2502   1.418       .  A
C2502      C2503   1.521       .  S
C2503      F2507   1.385       .  S
C2503      F2508   1.380       .  S
C2503      F2509   1.384       .  S
C2506      F2510   1.383       .  S
C2506      F2511   1.385       .  S
C2506      F2512   1.380       .  S
C2513      C2514   1.398       .  A
C2513      C2518   1.405       .  A
C2513      H2520   1.083       .  S
C2514      C2515   1.408       .  A
C2515      C2522   1.518       .  S
C2515      C2516   1.405       .  A
C2516      C2517   1.412       .  A
C2516      H2521   1.083       .  S
C2517      C2518   1.427       .  A
C2518      C2519   1.519       .  S
C2519      F2523   1.385       .  S
C2519      F2524   1.380       .  S
C2519      F2525   1.383       .  S
C2522      F2526   1.382       .  S
C2522      F2527   1.383       .  S
C2522      F2528   1.384       .  S
C2529      C2530   1.401   1_565  A
C2529      C2534   1.417       .  A
C2529      H2536   1.081       .  S
C2530      C3395   1.410       .  A
C2531      C2538   1.524       .  S
C2531      C3394   1.416       .  A
C2531      C2532   1.409       .  A
C2532      C3397   1.427       .  A
C2532      H2537   1.071       .  S
C2533      C2593   1.589   1_565  S
C2533      C3396   1.427   1_565  A
C2533      C2534   1.449       .  A
C2534      C2535   1.532       .  S
C2535      F3403   1.380       .  S
C2535      F3404   1.374       .  S
C2535      F2541   1.385       .  S
C2538      F2542   1.383       .  S
C2538      F3407   1.382       .  S
C2538      F3408   1.385       .  S
F2539      C3399   1.380       .  S
F2540      C3399   1.375       .  S
F2543      C3402   1.382       .  S
F2544      C3402   1.385       .  S
C2545      C3410   1.397       .  A
C2545      C2550   1.420       .  A
C2545      H2552   1.085       .  S
C2546      C3409   1.395       .  A
C2546      C2547   1.397       .  A
C2547      C2554   1.519       .  S
C2547      C2548   1.399       .  A
C2548      C2549   1.427       .  A
C2548      H2553   1.072       .  S
C2549      C2593   1.596       .  S
C2549      C3414   1.452       .  A
C2550      C2551   1.532       .  S
C2550      C3413   1.454       .  A
C2551      F3419   1.386       .  S
C2551      F3420   1.371       .  S
C2551      F2557   1.381       .  S
C2554      F2558   1.384       .  S
C2554      F3423   1.383   1_545  S
C2554      F3424   1.384       .  S
F2555      C3415   1.386       .  S
F2556      C3415   1.371       .  S
F2559      C3418   1.383       .  S
F2560      C3418   1.385       .  S
C2561      C2562   1.396       .  A
C2561      C2566   1.416       .  A
C2561      H2568   1.085       .  S
C2562      C2563   1.398       .  A
C2563      C2570   1.519       .  S
C2563      C2564   1.399       .  A
C2564      C2565   1.426       .  A
C2564      H2569   1.073       .  S
C2565      C2593   1.597       .  S
C2565      C2566   1.453       .  A
C2566      C2567   1.534       .  S
C2567      F2571   1.386       .  S
C2567      F2572   1.373   1_545  S
C2567      F2573   1.380   1_545  S
C2570      F2574   1.383       .  S
C2570      F2575   1.383       .  S
C2570      F2576   1.385       .  S
C2577      C2578   1.430       .  A
C2577      C2582   1.405       .  A
C2577      H2584   1.074       .  S
C2578      C2579   1.449       .  A
C2579      C2586   1.531       .  S
C2579      C2580   1.416       .  A
C2580      C2581   1.400       .  A
C2580      H2585   1.082       .  S
C2581      C2582   1.407       .  A
C2582      C2583   1.523       .  S
C2583      F2587   1.385       .  S
C2583      F2588   1.383       .  S
C2583      F2589   1.382       .  S
C2586      F2590   1.381       .  S
C2586      F2591   1.374       .  S
C2586      F2592   1.386       .  S
C2593      C3442   1.585   1_545  S
N2594      C2599   1.352   1_554  A
N2594      C2598   1.352       .  A
N2594      H2626   1.036       .  S
N2595      C2603   1.350       .  A
N2596      C2601   1.351   1_554  A
N2596      C2600   1.351       .  A
N2596      H2627   1.032       .  S
N2597      C2605   1.351       .  A
C2598      C2606   1.387       .  A
C2598      C2614   1.414       .  A
C2599      C2615   1.415       .  A
C2599      C2607   1.387       .  A
C2600      C2608   1.387       .  A
C2600      C2617   1.414       .  A
C2601      C2616   1.414       .  A
C2601      C2609   1.388       .  A
C2602      C2614   1.417       .  A
C2602      C2610   1.386       .  A
C2603      C2617   1.416       .  A
C2603      C2611   1.387       .  A
C2604      C2612   1.387       .  A
C2604      C2615   1.415       .  A
C2605      C2613   1.388       .  A
C2605      C2616   1.418       .  A
C2606      C2607   1.377   1_554  A
C2606      H2618   1.083       .  S
C2607      H2619   1.083       .  S
C2608      C2609   1.373   1_554  A
C2608      H2620   1.083       .  S
C2609      H2621   1.083       .  S
C2610      H2622   1.082       .  S
C2611      H2623   1.081       .  S
C2612      H2624   1.082       .  S
C2613      H2625   1.082       .  S
C2614      C3333   1.489       .  S
C2615      C3362   1.486       .  S
C2616      C3378   1.481       .  S
C2617      C3346   1.481       .  S
C2628      C3269   1.607       .  S
C2628      C3282   1.589       .  S
C2628      C3298   1.590       .  S
C2629      C3234   1.593       .  S
N2630      C2635   1.350       .  A
N2630      C2634   1.352   1_554  A
N2630      H2662   1.041       .  S
N2631      C2639   1.349       .  A
N2632      C2637   1.352       .  A
N2632      C2636   1.348   1_554  A
N2632      H2663   1.040       .  S
N2633      C2641   1.350       .  A
C2634      C2642   1.387       .  A
C2634      C2650   1.413       .  A
C2635      C2651   1.411       .  A
C2635      C2643   1.387       .  A
C2636      C2644   1.387       .  A
C2636      C2653   1.411       .  A
C2637      C2652   1.412       .  A
C2637      C2645   1.387       .  A
C2638      C2650   1.409       .  A
C2638      C2646   1.386       .  A
C2639      C2653   1.413       .  A
C2639      C2647   1.388       .  A
C2640      C2648   1.387       .  A
C2640      C2651   1.411       .  A
C2641      C2649   1.386       .  A
C2641      C2652   1.409       .  A
C2642      C2643   1.381   1_556  A
C2642      H2654   1.082       .  S
C2643      H2655   1.082       .  S
C2644      C2645   1.380   1_556  A
C2644      H2656   1.082       .  S
C2645      H2657   1.082       .  S
C2646      H2658   1.082       .  S
C2647      H2659   1.082       .  S
C2648      H2660   1.082       .  S
C2649      H2661   1.082       .  S
C2650      C3189   1.489       .  S
C2651      C3154   1.482       .  S
C2652      C3138   1.488       .  S
C2653      C3170   1.480       .  S
C2664      N2682   1.348       .  A
C2664      C2701   1.460       .  S
C2664      C3381   1.479       .  S
N2665      N2682   1.322       .  A
N2665      N2687   1.317       .  A
N2665     Co2702   2.075       .  S
C2666      N2691   1.337       .  A
C2666      H2711   1.080       .  S
C2666      C2704   1.464       .  S
H2667      C2708   1.079       .  S
C2668      N2692   1.341       .  A
C2668      H2697   1.080       .  S
C2668      C2672   1.460       .  S
Co2669     N2687   2.072       .  S
Co2669     N2677   2.097       .  S
Co2669     N2709   2.096       .  S
Co2669     N2685   2.092       .  S
Co2669    Cl2713   2.458       .  S
N2670      C2708   1.337       .  A
N2670      N2677   1.318       .  A
N2670     Co2671   2.073       .  S
Co2671     N2674   2.075       .  S
Co2671     N2691   2.080       .  S
Co2671     N2678   2.096       .  S
Co2671    Cl2713   2.449       .  S
C2672      N2710   1.347       .  A
C2672      C3365   1.478       .  S
N2673      N2680   1.317       .  A
N2673      N2703   1.323       .  A
N2673     Co2706   2.073       .  S
N2674      N2692   1.317       .  A
N2674      N2710   1.323       .  A
N2675      C2704   1.354       .  A
N2675      N2685   1.326       .  A
H2676      C2701   1.078       .  S
N2677      N2698   1.327       .  A
N2678      N2696   1.321       .  A
N2678      N2683   1.324       .  A
C2679      N2683   1.353       .  A
C2679      C2707   1.460       .  S
C2679      C3237   1.484       .  S
N2680      C2695   1.338       .  A
N2680     Co2702   2.080       .  S
C2681      N2709   1.343       .  A
C2681      H2715   1.082       .  S
C2681      C2684   1.468       .  S
C2684      N2705   1.351       .  A
C2684      C3253   1.492       .  S
N2685      N2691   1.321       .  A
N2686      C2712   1.342       .  A
N2686      N2688   1.322       .  A
N2686     Co2702   2.084       .  S
N2687      C2701   1.338       .  A
N2688      N2716   1.326       .  A
N2688     Co2706   2.096       .  S
H2689      C2712   1.081       .  S
H2690      C2707   1.082       .  S
N2692     Co2706   2.082       .  S
N2693      N2705   1.324       .  A
N2693      N2709   1.322       .  A
N2693     Co2702   2.095       .  S
C2694      N2698   1.353       .  A
C2694      C2708   1.455       .  S
C2694      C3186   1.481       .  S
C2695      H2699   1.078       .  S
C2695      C2714   1.460       .  S
N2696      C2707   1.339       .  A
N2696     Co2706   2.078       .  S
C2700      N2716   1.350       .  A
C2700      C2712   1.457       .  S
C2700      C3301   1.478       .  S
Co2702    Cl2713   2.446       .  S
N2703      C2714   1.348       .  A
C2704      C3317   1.492       .  S
Co2706    Cl2713   2.455       .  S
C2714      C3173   1.478       .  S
C2717      N2735   1.353       .  A
C2717      C2754   1.465       .  S
C2717      C3445   1.487       .  S
N2718      N2735   1.324       .  A
N2718      N2740   1.319       .  A
N2718     Co2755   2.089       .  S
C2719      N2744   1.340       .  A
C2719      H2764   1.078       .  S
C2719      C2757   1.460       .  S
H2720      C2761   1.080       .  S
C2721      N2745   1.342       .  A
C2721      H2750   1.082       .  S
C2721      C2725   1.458       .  S
Co2722     N2740   2.084       .  S
Co2722     N2730   2.083       .  S
Co2722     N2762   2.071       .  S
Co2722     N2738   2.086       .  S
Co2722    Cl2766   2.450       .  S
N2723      C2761   1.338       .  A
N2723      N2730   1.320       .  A
N2723     Co2724   2.085       .  S
Co2724     N2727   2.104       .  S
Co2724     N2744   2.083       .  S
Co2724     N2731   2.085       .  S
Co2724    Cl2766   2.456       .  S
C2725      N2763   1.354       .  A
C2725      C3426   1.481       .  S
N2726      N2733   1.321       .  A
N2726      N2756   1.323       .  A
N2726     Co2759   2.085       .  S
N2727      N2745   1.321       .  A
N2727      N2763   1.327       .  A
N2728      C2757   1.350       .  A
N2728      N2738   1.325       .  A
H2729      C2754   1.081       .  S
N2730      N2751   1.323       .  A
N2731      N2749   1.318       .  A
N2731      N2736   1.326       .  A
C2732      N2736   1.351       .  A
C2732      C2760   1.457       .  S
C2732      C3141   1.479       .  S
N2733      C2748   1.340       .  A
N2733     Co2755   2.085       .  S
C2734      N2762   1.337       .  A
C2734      H2768   1.076       .  S
C2734      C2737   1.459       .  S
C2737      N2758   1.352       .  A
C2737      C3157   1.485       .  S
N2738      N2744   1.318       .  A
N2739      C2765   1.335       .  A
N2739      N2741   1.315       .  A
N2739     Co2755   2.063       .  S
N2740      C2754   1.340       .  A
N2741      N2769   1.323       .  A
N2741     Co2759   2.083       .  S
H2742      C2765   1.075       .  S
H2743      C2760   1.079       .  S
N2745     Co2759   2.084       .  S
N2746      N2758   1.325       .  A
N2746      N2762   1.317       .  A
N2746     Co2755   2.090       .  S
C2747      N2751   1.350       .  A
C2747      C2761   1.464       .  S
C2747      C3106   1.479       .  S
C2748      H2752   1.082       .  S
C2748      C2767   1.461       .  S
N2749      C2760   1.337       .  A
N2749     Co2759   2.075       .  S
C2753      N2769   1.352       .  A
C2753      C2765   1.459       .  S
C2753      C3349   1.483       .  S
Co2755    Cl2766   2.453       .  S
N2756      C2767   1.349       .  A
C2757      C3330   1.485       .  S
Co2759    Cl2766   2.444       .  S
C2767      C3122   1.472       .  S
C2770      N2788   1.345   1_455  A
C2770      C3221   1.488       .  S
N2771      N2788   1.319       .  A
N2771     Co2808   2.064       .  S
C2772      N2797   1.333       .  A
C2772      H2817   1.076       .  S
C2772      C2810   1.458       .  S
H2773      C2814   1.082       .  S
C2774      N2798   1.345       .  A
C2774      H2803   1.082       .  S
C2774      C2778   1.472       .  S
Co2775     N2793   2.103       .  S
Co2775     N2783   2.098       .  S
Co2775     N2815   2.074       .  S
Co2775     N2791   2.088       .  S
N2776      C2814   1.340       .  A
N2776     Co2777   2.086       .  S
Co2777     N2780   2.089       .  S
Co2777     N2797   2.070       .  S
Co2777     N2784   2.096       .  S
C2778      C3205   1.495   1_655  S
N2779      N2809   1.321       .  A
N2779     Co2812   2.073       .  S
N2780      N2816   1.324       .  A
N2781      N2791   1.326       .  A
H2782      C2807   1.082       .  S
N2783      N2804   1.327       .  A
N2784      N2789   1.327       .  A
C2785      C2813   1.450       .  S
C2785      C3074   1.475       .  S
N2786      C2801   1.342       .  A
N2786     Co2808   2.089       .  S
C2787      N2815   1.336       .  A
C2787      H2821   1.079       .  S
C2790      N2811   1.350   1_455  A
C2790      C3090   1.481   1_455  S
N2792      C2818   1.332       .  A
N2792     Co2808   2.058       .  S
N2793      C2807   1.347       .  A
N2794      N2822   1.324       .  A
N2794     Co2812   2.095       .  S
H2795      C2818   1.071       .  S
H2796      C2813   1.081       .  S
N2798     Co2812   2.103       .  S
N2799      N2811   1.325       .  A
N2799     Co2808   2.088       .  S
C2800      C2814   1.455       .  S
C2800      C3285   1.478       .  S
C2801      H2805   1.081       .  S
N2802      C2813   1.333       .  A
N2802     Co2812   2.053       .  S
C2806      N2822   1.358       .  A
C2806      C3058   1.495       .  S
N2809      C2820   1.349       .  A
C2810      C3042   1.498       .  S
Co2812    Cl2819   2.453       .  S
C2820      C3266   1.486       .  S
C2823      N2841   1.353       .  A
C2823      C3410   1.481       .  S
N2824      N2841   1.327       .  A
N2824     Co2861   2.102       .  S
C2825      N2850   1.337       .  A
C2825      H2870   1.076       .  S
C2825      C2863   1.457       .  S
H2826      C2867   1.082       .  S
C2827      N2851   1.339       .  A
C2827      H2856   1.076       .  S
C2827      C2831   1.467       .  S
Co2828     N2846   2.085       .  S
Co2828     N2836   2.099       .  S
Co2828     N2868   2.082       .  S
Co2828     N2844   2.078       .  S
N2829      C2867   1.340       .  A
N2829     Co2830   2.100       .  S
Co2830     N2833   2.092       .  S
Co2830     N2850   2.070       .  S
Co2830     N2837   2.093       .  S
C2831      C3394   1.504       .  S
N2832      N2862   1.322       .  A
N2832     Co2865   2.075       .  S
N2833      N2869   1.325       .  A
N2834      N2844   1.324       .  A
H2835      C2860   1.082       .  S
N2836      N2857   1.331       .  A
N2837      N2842   1.326       .  A
C2838      C2866   1.451       .  S
C2838      C3026   1.469       .  S
N2839      C2854   1.345       .  A
N2839     Co2861   2.100       .  S
C2840      N2868   1.341       .  A
C2840      H2874   1.081       .  S
C2843      N2864   1.346       .  A
C2843      C3013   1.463       .  S
N2845      C2871   1.337       .  A
N2845     Co2861   2.081       .  S
N2846      C2860   1.340       .  A
N2847      N2875   1.324       .  A
N2847     Co2865   2.078       .  S
H2848      C2871   1.081       .  S
H2849      C2866   1.080       .  S
N2851     Co2865   2.085       .  S
N2852      N2864   1.322       .  A
N2852     Co2861   2.075       .  S
C2853      C2867   1.469       .  S
C2853      C2946   1.503       .  S
C2854      H2858   1.081       .  S
N2855      C2866   1.338       .  A
N2855     Co2865   2.064       .  S
C2859      N2875   1.347   1_455  A
C2859      C2978   1.475   1_455  S
N2862      C2873   1.346   1_655  A
C2863      C2997   1.479       .  S
Co2865    Cl2872   2.452   1_655  S
C2873      C2962   1.474       .  S
N2876      C2881   1.348       .  A
N2876      C2880   1.351       .  A
N2876      H2908   1.039       .  S
N2877      C2884   1.350       .  A
N2877      C2885   1.348       .  A
N2878      C2883   1.354       .  A
N2878      C2882   1.353       .  A
N2878      H2909   1.041       .  S
N2879      C2886   1.351       .  A
N2879      C2887   1.352       .  A
C2880      C2888   1.387       .  A
C2880      C2896   1.412       .  A
C2881      C2897   1.408       .  A
C2881      C2889   1.386       .  A
C2882      C2890   1.388       .  A
C2882      C2899   1.418       .  A
C2883      C2898   1.413       .  A
C2883      C2891   1.385       .  A
C2884      C2896   1.411       .  A
C2884      C2892   1.386       .  A
C2885      C2899   1.411       .  A
C2885      C2893   1.387       .  A
C2886      C2894   1.387       .  A
C2886      C2897   1.412       .  A
C2887      C2895   1.386       .  A
C2887      C2898   1.411       .  A
C2888      C2889   1.379       .  A
C2888      H2900   1.082       .  S
C2889      H2901   1.083       .  S
C2890      C2891   1.381       .  A
C2890      H2902   1.082       .  S
C2891      H2903   1.082       .  S
C2892      C2893   1.372       .  A
C2892      H2904   1.082       .  S
C2893      H2905   1.083       .  S
C2894      C2895   1.367       .  A
C2894      H2906   1.082       .  S
C2895      H2907   1.082       .  S
C2896      C2981   1.485       .  S
C2897      C3077   1.479       .  S
C2898      C3093   1.491       .  S
C2899      C2994   1.488       .  S
N2910      C2915   1.351       .  A
N2910      C2914   1.348       .  A
N2910      H2942   1.043   1_545  S
N2911      C2918   1.350       .  A
N2911      C2919   1.351       .  A
N2912      C2917   1.352       .  A
N2912      C2916   1.349       .  A
N2912      H2943   1.039       .  S
N2913      C2920   1.347       .  A
N2913      C2921   1.348       .  A
C2914      C2922   1.386       .  A
C2914      C2930   1.404       .  A
C2915      C2931   1.404       .  A
C2915      C2923   1.382       .  A
C2916      C2924   1.388       .  A
C2916      C2933   1.411       .  A
C2917      C2932   1.411       .  A
C2917      C2925   1.386   1_545  A
C2918      C2930   1.409       .  A
C2918      C2926   1.386       .  A
C2919      C2933   1.413       .  A
C2919      C2927   1.388       .  A
C2920      C2928   1.388       .  A
C2920      C2931   1.413       .  A
C2921      C2929   1.385       .  A
C2921      C2932   1.403       .  A
C2922      C2923   1.379       .  A
C2922      H2934   1.083       .  S
C2923      H2935   1.081       .  S
C2924      C2925   1.377   1_545  A
C2924      H2936   1.082   1_545  S
C2925      H2937   1.082       .  S
C2926      C2927   1.364       .  A
C2926      H2938   1.082       .  S
C2927      H2939   1.082       .  S
C2928      C2929   1.371       .  A
C2928      H2940   1.082       .  S
C2929      H2941   1.082       .  S
C2930      C3045   1.476       .  S
C2931      C3010   1.526   1_545  S
C2932      C3029   1.483       .  S
C2933      C3061   1.480       .  S
C2944      C2949   1.617       .  S
C2944      C2965   1.612       .  S
C2944      C3109   1.589       .  S
C2945      C2946   1.391       .  A
C2945      C2950   1.412       .  A
C2945      H2952   1.081       .  S
C2947      C2954   1.519       .  S
C2947      C2948   1.416       .  A
C2948      C2949   1.431       .  A
C2948      H2953   1.078       .  S
C2950      C2951   1.526       .  S
C2951      F2955   1.387       .  S
C2951      F2956   1.379       .  S
C2951      F2957   1.373       .  S
C2954      F2958   1.383       .  S
C2954      F2959   1.384       .  S
C2954      F2960   1.385       .  S
C2961      C2962   1.385       .  A
C2961      C2966   1.410       .  A
C2961      H2968   1.083       .  S
C2963      C2970   1.517       .  S
C2963      C2964   1.414       .  A
C2964      C2965   1.425       .  A
C2964      H2969   1.077       .  S
C2966      C2967   1.538       .  S
C2967      F2971   1.385       .  S
C2967      F2972   1.372       .  S
C2967      F2973   1.375   1_455  S
C2970      F2974   1.383       .  S
C2970      F2975   1.383       .  S
C2970      F2976   1.384       .  S
C2977      C2982   1.404       .  A
C2977      H2984   1.082       .  S
C2978      C2979   1.415       .  A
C2979      C2986   1.518       .  S
C2979      C2980   1.403       .  A
C2980      H2985   1.083       .  S
C2981      C2982   1.411       .  A
C2982      C2983   1.518       .  S
C2983      F2987   1.385       .  S
C2983      F2988   1.382       .  S
C2983      F2989   1.383       .  S
C2986      F2990   1.382       .  S
C2986      F2991   1.384       .  S
C2986      F2992   1.385       .  S
C2993      C2998   1.401       .  A
C2993      H3000   1.084       .  S
C2994      C2995   1.411       .  A
C2995      C3002   1.518       .  S
C2995      C2996   1.408       .  A
C2996      H3001   1.083       .  S
C2997      C2998   1.421       .  A
C2998      C2999   1.521       .  S
C2999      F3003   1.386       .  S
C2999      F3004   1.383       .  S
C2999      F3005   1.379       .  S
C3002      F3006   1.383       .  S
C3002      F3007   1.381       .  S
C3002      F3008   1.385       .  S
C3009      C3010   1.415       .  A
C3009      C3014   1.399       .  A
C3009      H3016   1.079       .  S
C3011      C3018   1.521       .  S
C3011      C3012   1.407       .  A
C3012      C3013   1.399       .  A
C3012      H3017   1.085       .  S
C3014      C3015   1.519       .  S
C3015      F3019   1.385       .  S
C3015      F3021   1.382       .  S
C3018      F3022   1.382       .  S
C3018      F3024   1.384       .  S
C3025      C3030   1.404       .  A
C3025      H3032   1.083       .  S
C3026      C3027   1.417       .  A
C3027      C3034   1.519       .  S
C3027      C3028   1.405       .  A
C3028      H3033   1.084       .  S
C3029      C3030   1.419   1_545  A
C3030      C3031   1.519       .  S
C3031      F3035   1.385       .  S
C3031      F3036   1.380       .  S
C3031      F3037   1.383       .  S
C3034      F3038   1.382       .  S
C3034      F3039   1.384       .  S
C3034      F3040   1.385       .  S
C3041      C3046   1.397       .  A
C3041      H3048   1.082       .  S
C3042      C3043   1.424       .  A
C3043      C3050   1.513       .  S
C3043      C3044   1.410       .  A
C3044      H3049   1.083       .  S
C3045      C3046   1.411       .  A
C3046      C3047   1.518       .  S
C3047      F3053   1.383       .  S
C3050      F3054   1.383       .  S
C3057      C3058   1.410       .  A
C3057      C3062   1.402       .  A
C3057      H3064   1.082       .  S
C3059      C3066   1.514       .  S
C3059      C3060   1.403       .  A
C3060      C3061   1.392   1_565  A
C3060      H3065   1.083       .  S
C3062      C3063   1.520       .  S
C3063      F3069   1.383       .  S
C3066      F3070   1.383       .  S
C3073      C3074   1.405       .  A
C3073      C3078   1.398       .  A
C3073      H3080   1.084       .  S
C3075      C3082   1.514       .  S
C3075      C3076   1.403       .  A
C3076      C3077   1.397       .  A
C3076      H3081   1.084       .  S
C3078      C3079   1.518       .  S
C3079      F3083   1.384       .  S
C3079      F3084   1.382       .  S
C3079      F3085   1.383       .  S
C3082      F3086   1.383       .  S
C3082      F3087   1.381       .  S
C3082      F3088   1.385       .  S
C3089      C3094   1.407       .  A
C3089      H3096   1.077       .  S
C3090      C3091   1.419       .  A
C3091      C3098   1.521       .  S
C3091      C3092   1.405       .  A
C3092      H3097   1.083       .  S
C3093      C3094   1.411       .  A
C3094      C3095   1.522       .  S
C3095      F3099   1.384       .  S
C3095      F3100   1.383       .  S
C3095      F3101   1.382       .  S
C3098      F3102   1.380       .  S
C3098      F3103   1.384       .  S
C3098      F3104   1.385       .  S
C3105      C3106   1.399       .  A
C3105      C3110   1.414       .  A
C3105      H3112   1.083       .  S
C3106      C3107   1.403       .  A
C3107      C3114   1.524       .  S
C3107      C3108   1.400       .  A
C3108      C3109   1.430       .  A
C3108      H3113   1.075       .  S
C3109      C3110   1.447       .  A
C3110      C3111   1.523       .  S
C3111      F3115   1.386       .  S
C3111      F3116   1.380       .  S
C3111      F3117   1.366       .  S
C3114      F3118   1.384       .  S
C3114      F3119   1.381       .  S
C3114      F3120   1.385       .  S
C3121      C3122   1.394       .  A
C3121      C3126   1.415       .  A
C3121      H3128   1.086       .  S
C3122      C3123   1.399       .  A
C3123      C3130   1.520       .  S
C3123      C3124   1.403       .  A
C3124      C3125   1.431       .  A
C3124      H3129   1.077       .  S
C3125      C3126   1.458       .  A
C3126      C3127   1.529       .  S
C3127      F3131   1.387       .  S
C3127      F3132   1.363   1_655  S
C3127      F3133   1.381       .  S
C3130      F3134   1.382       .  S
C3130      F3135   1.384       .  S
C3130      F3136   1.385       .  S
C3137      C3138   1.399       .  A
C3137      C3142   1.403       .  A
C3137      H3144   1.084       .  S
C3138      C3139   1.419       .  A
C3139      C3146   1.519       .  S
C3139      C3140   1.407       .  A
C3140      C3141   1.402       .  A
C3140      H3145   1.083       .  S
C3141      C3142   1.419       .  A
C3142      C3143   1.516       .  S
C3143      F3147   1.385       .  S
C3143      F3148   1.379       .  S
C3143      F3149   1.384       .  S
C3146      F3150   1.381       .  S
C3146      F3151   1.383       .  S
C3146      F3152   1.385       .  S
C3153      C3154   1.397       .  A
C3153      C3158   1.404       .  A
C3153      H3160   1.084       .  S
C3154      C3155   1.414       .  A
C3155      C3162   1.519       .  S
C3155      C3156   1.405       .  A
C3156      C3157   1.405       .  A
C3156      H3161   1.083       .  S
C3157      C3158   1.424       .  A
C3158      C3159   1.517       .  S
C3159      F3163   1.386       .  S
C3159      F3164   1.380       .  S
C3159      F3165   1.383       .  S
C3162      F3166   1.381       .  S
C3162      F3167   1.383       .  S
C3162      F3168   1.384       .  S
C3169      C3170   1.397       .  A
C3169      C3174   1.402       .  A
C3169      H3176   1.084       .  S
C3170      C3171   1.414       .  A
C3171      C3178   1.519       .  S
C3171      C3172   1.404       .  A
C3172      C3173   1.404       .  A
C3172      H3177   1.083       .  S
C3173      C3174   1.420       .  A
C3174      C3175   1.515       .  S
C3175      F3179   1.385       .  S
C3175      F3180   1.384       .  S
C3175      F3181   1.379       .  S
C3178      F3182   1.383       .  S
C3178      F3183   1.381       .  S
C3178      F3184   1.384       .  S
C3185      C3186   1.401       .  A
C3185      C3190   1.404       .  A
C3185      H3192   1.085       .  S
C3186      C3187   1.422       .  A
C3187      C3194   1.518       .  S
C3187      C3188   1.406       .  A
C3188      C3189   1.400       .  A
C3188      H3193   1.084       .  S
C3189      C3190   1.420       .  A
C3190      C3191   1.519       .  S
C3191      F3195   1.384       .  S
C3191      F3196   1.383       .  S
C3191      F3197   1.383       .  S
C3194      F3198   1.384       .  S
C3194      F3199   1.380       .  S
C3194      F3200   1.385       .  S
C3201      C3206   1.405       .  A
C3201      H3208   1.072       .  S
C3202      C3203   1.454   1_455  A
C3203      C3210   1.537       .  S
C3203      C3204   1.416       .  A
C3204      C3205   1.398   1_655  A
C3204      H3209   1.081       .  S
C3206      C3207   1.522       .  S
C3207      F3211   1.385       .  S
C3207      F3212   1.382       .  S
C3207      F3213   1.384       .  S
C3210      F3214   1.374       .  S
C3210      F3215   1.385       .  S
C3210      F3216   1.380       .  S
C3217      C3218   1.421       .  A
C3217      C3222   1.403       .  A
C3217      H3224   1.072       .  S
C3219      C3226   1.538       .  S
C3219      C3220   1.417       .  A
C3220      H3225   1.082       .  S
C3221      C3222   1.412   1_455  A
C3222      C3223   1.524       .  S
C3223      F3227   1.385       .  S
C3223      F3228   1.383       .  S
C3223      F3229   1.384       .  S
C3226      F3230   1.375       .  S
C3226      F3231   1.385       .  S
C3226      F3232   1.380       .  S
C3233      C3234   1.426       .  A
C3233      C3238   1.400       .  A
C3233      H3240   1.071       .  S
C3234      C3235   1.451       .  A
C3235      C3242   1.535       .  S
C3235      C3236   1.416       .  A
C3236      C3237   1.400       .  A
C3236      H3241   1.081       .  S
C3237      C3238   1.403       .  A
C3238      C3239   1.522       .  S
C3239      F3243   1.385       .  S
C3239      F3244   1.384       .  S
C3239      F3245   1.380       .  S
C3242      F3246   1.374       .  S
C3242      F3247   1.380       .  S
C3242      F3248   1.385       .  S
C3249      C3250   1.423       .  A
C3249      C3254   1.404       .  A
C3249      H3256   1.072       .  S
C3250      C3251   1.453       .  A
C3251      C3258   1.535       .  S
C3251      C3252   1.418       .  A
C3252      C3253   1.400       .  A
C3252      H3257   1.081       .  S
C3253      C3254   1.409       .  A
C3254      C3255   1.523       .  S
C3255      F3259   1.386       .  S
C3255      F3260   1.384       .  S
C3255      F3261   1.381       .  S
C3258      F3262   1.375       .  S
C3258      F3263   1.380   1_655  S
C3258      F3264   1.385       .  S
C3265      C3266   1.399       .  A
C3265      C3270   1.416       .  A
C3265      H3272   1.079       .  S
C3267      C3274   1.526       .  S
C3267      C3268   1.405       .  A
C3268      H3273   1.069       .  S
C3269      C3270   1.454       .  A
C3270      C3271   1.536       .  S
C3271      F3275   1.378       .  S
C3271      F3276   1.386       .  S
C3274      F3279   1.384       .  S
C3274      F3280   1.385       .  S
C3281      C3286   1.407       .  A
C3281      H3288   1.074       .  S
C3282      C3283   1.459       .  A
C3283      C3290   1.537       .  S
C3283      C3284   1.409       .  A
C3284      C3285   1.387       .  A
C3284      H3289   1.083       .  S
C3286      C3287   1.519   1_545  S
C3287      F3291   1.385       .  S
C3287      F3292   1.383   1_565  S
C3287      F3293   1.383       .  S
C3290      F3294   1.380       .  S
C3290      F3295   1.375       .  S
C3290      F3296   1.385       .  S
C3297      C3298   1.422       .  A
C3297      C3302   1.409       .  A
C3297      H3304   1.073       .  S
C3298      C3299   1.461       .  A
C3299      C3306   1.539       .  S
C3299      C3300   1.410       .  A
C3300      C3301   1.388       .  A
C3300      H3305   1.083       .  S
C3301      C3302   1.407       .  A
C3302      C3303   1.519       .  S
C3303      F3307   1.385       .  S
C3303      F3308   1.383       .  S
C3303      F3309   1.383       .  S
C3306      F3310   1.381       .  S
C3306      F3311   1.373       .  S
C3306      F3312   1.386       .  S
C3313      C3314   1.426       .  A
C3313      C3318   1.398       .  A
C3313      H3320   1.070       .  S
C3314      C3315   1.455       .  A
C3315      C3322   1.535       .  S
C3315      C3316   1.420       .  A
C3316      C3317   1.400       .  A
C3316      H3321   1.082       .  S
C3317      C3318   1.406       .  A
C3318      C3319   1.524       .  S
C3319      F3323   1.385       .  S
C3319      F3324   1.382       .  S
C3319      F3325   1.382       .  S
C3322      F3326   1.372   1_565  S
C3322      F3327   1.380       .  S
C3322      F3328   1.385       .  S
C3329      C3330   1.405       .  A
C3329      C3334   1.407       .  A
C3329      H3336   1.083       .  S
C3330      C3331   1.422       .  A
C3331      C3338   1.518       .  S
C3331      C3332   1.405       .  A
C3332      C3333   1.400       .  A
C3332      H3337   1.084       .  S
C3333      C3334   1.414       .  A
C3334      C3335   1.518       .  S
C3335      F3339   1.381       .  S
C3335      F3340   1.383       .  S
C3335      F3341   1.384       .  S
C3338      F3342   1.382       .  S
C3338      F3343   1.383       .  S
C3338      F3344   1.385       .  S
C3345      C3346   1.398       .  A
C3345      C3350   1.403       .  A
C3345      H3352   1.084       .  S
C3346      C3347   1.413       .  A
C3347      C3354   1.518       .  S
C3347      C3348   1.399       .  A
C3348      C3349   1.406       .  A
C3348      H3353   1.084       .  S
C3349      C3350   1.426       .  A
C3350      C3351   1.519       .  S
C3351      F3355   1.385       .  S
C3351      F3356   1.382       .  S
C3351      F3357   1.382       .  S
C3354      F3358   1.383       .  S
C3354      F3359   1.382       .  S
C3354      F3360   1.383       .  S
C3361      C3362   1.401       .  A
C3361      C3366   1.403       .  A
C3361      H3368   1.084       .  S
C3362      C3363   1.416       .  A
C3363      C3370   1.519       .  S
C3363      C3364   1.404       .  A
C3364      C3365   1.404       .  A
C3364      H3369   1.083       .  S
C3365      C3366   1.419       .  A
C3366      C3367   1.518       .  S
C3367      F3371   1.385       .  S
C3367      F3372   1.383       .  S
C3367      F3373   1.382       .  S
C3370      F3374   1.381       .  S
C3370      F3375   1.385       .  S
C3370      F3376   1.383       .  S
C3377      C3378   1.398       .  A
C3377      C3382   1.401       .  A
C3377      H3384   1.084       .  S
C3378      C3379   1.411       .  A
C3379      C3386   1.519       .  S
C3379      C3380   1.402       .  A
C3380      C3381   1.406       .  A
C3380      H3385   1.082       .  S
C3381      C3382   1.421       .  A
C3382      C3383   1.518       .  S
C3383      F3387   1.385       .  S
C3383      F3388   1.383       .  S
C3383      F3389   1.382       .  S
C3386      F3390   1.383       .  S
C3386      F3391   1.381       .  S
C3386      F3392   1.384       .  S
C3393      C3394   1.402       .  A
C3393      C3398   1.419       .  A
C3393      H3400   1.081       .  S
C3395      C3402   1.524       .  S
C3395      C3396   1.403       .  A
C3396      H3401   1.070       .  S
C3397      C3398   1.450       .  A
C3398      C3399   1.530       .  S
C3399      F3405   1.385       .  S
C3402      F3406   1.383       .  S
C3409      C3414   1.415       .  A
C3409      H3416   1.085       .  S
C3410      C3411   1.400       .  A
C3411      C3418   1.519       .  S
C3411      C3412   1.401       .  A
C3412      C3413   1.427       .  A
C3412      H3417   1.071       .  S
C3414      C3415   1.532       .  S
C3415      F3421   1.381   1_545  S
C3418      F3422   1.383       .  S
C3425      C3426   1.396       .  A
C3425      C3430   1.419       .  A
C3425      H3432   1.085       .  S
C3426      C3427   1.400       .  A
C3427      C3434   1.519       .  S
C3427      C3428   1.403       .  A
C3428      C3429   1.427       .  A
C3428      H3433   1.073       .  S
C3429      C3430   1.457       .  A
C3430      C3431   1.535       .  S
C3431      F3435   1.387       .  S
C3431      F3436   1.371       .  S
C3431      F3437   1.381       .  S
C3434      F3438   1.383       .  S
C3434      F3439   1.383       .  S
C3434      F3440   1.385       .  S
C3441      C3442   1.430       .  A
C3441      C3446   1.404       .  A
C3441      H3448   1.074       .  S
C3442      C3443   1.449       .  A
C3443      C3450   1.531       .  S
C3443      C3444   1.415       .  A
C3444      C3445   1.399       .  A
C3444      H3449   1.082       .  S
C3445      C3446   1.408       .  A
C3446      C3447   1.524       .  S
C3447      F3451   1.385       .  S
C3447      F3452   1.382       .  S
C3447      F3453   1.382       .  S
C3450      F3454   1.381       .  S
C3450      F3455   1.373   1_565  S
C3450      F3456   1.386       .  S
