geometry optimzed in LAMMPS
_audit_creation_date              2020-12-01 
_audit_creation_method            'lammps2cif' 
_symmetry_space_group_name_H-M    'P1' 
_symmetry_Int_Tables_number       1 
_symmetry_cell_setting            triclinic 
loop_ 
_symmetry_equiv_pos_as_xyz 
  x,y,z 
_cell_length_a                    39.1999268 
_cell_length_b                    38.77239544049989 
_cell_length_c                    39.603925491261506 
_cell_angle_alpha                 89.99013619678814 
_cell_angle_beta                  89.95010799830412 
_cell_angle_gamma                 89.9941731560769 
loop_ 
_atom_site_label 
_atom_site_type_symbol 
_atom_site_fract_x 
_atom_site_fract_y 
_atom_site_fract_z 
_atom_site_charge 
O1          O  0.44593057  0.43671352  0.93483543    -0.75400
O2          O  0.48029120  0.46272752  0.89583049    -0.54300
C3          C  0.45554267  0.44274165  0.90430590     0.78300
O4          O  0.44881607  0.57027694  0.04815316    -0.60000
O5          O  0.47778902  0.53736831  0.08647981    -0.53000
C6          C  0.45608722  0.56085428  0.07846360     0.70300
O7          O  0.44552657  0.56892224  0.93478762    -0.74600
O8          O  0.47521314  0.53802064  0.89546094    -0.55100
C9          C  0.45250845  0.56029732  0.90416915     0.76300
O10         O  0.45008230  0.43331105  0.04811938    -0.59700
O11         O  0.48213126  0.46192408  0.08720635    -0.52800
C12         C  0.45888939  0.44023814  0.07866009     0.72900
Zr13       Zr  0.46834799  0.44887260  0.99111265     2.54700
O14         O  0.40757806  0.43681999  0.99569263    -0.80300
O15         O  0.48019425  0.38732208  0.98839755    -0.93700
Zr16       Zr  0.46329274  0.55150347  0.99126289     2.64700
O17         O  0.40174407  0.54330572  0.99142369    -0.98600
O18         O  0.45839948  0.61406108  0.99014888    -0.80700
O19         O  0.46446366  0.50026242  0.95870090    -0.84100
O20         O  0.46516979  0.50002599  0.02363666    -2.18800
O21         O  0.58904187  0.43734802  0.04677476    -0.67500
O22         O  0.55525860  0.46404925  0.08585000    -0.52000
C23         C  0.57953925  0.44343452  0.07740257     0.71300
O24         O  0.58136982  0.57389932  0.93392443    -0.60400
O25         O  0.55358093  0.54049912  0.89520956    -0.52300
C26         C  0.57499105  0.56420122  0.90343999     0.73100
O27         O  0.57953076  0.57499954  0.04802437    -0.71800
O28         O  0.55388126  0.53938890  0.08638706    -0.50400
C29         C  0.57371293  0.56441923  0.07830140     0.74500
O30         O  0.58887245  0.44032586  0.93248928    -0.67100
O31         O  0.55383213  0.46722488  0.89471809    -0.54300
C32         C  0.57863120  0.44704435  0.90226708     0.72900
Zr33       Zr  0.57013762  0.45416032  0.98994928     2.77500
O34         O  0.63209485  0.45899992  0.98871225    -0.97800
O35         O  0.57005322  0.39133534  0.98812411    -0.78700
Zr36       Zr  0.56390508  0.55721144  0.99092434     2.70100
O37         O  0.62562308  0.56386107  0.99112144    -0.79900
O38         O  0.55448983  0.61930852  0.99152464    -0.99000
Zr39       Zr  0.51566827  0.50307589  0.92671224     2.21500
Zr40       Zr  0.51696357  0.50159346  0.05491697     2.11100
O41         O  0.56811923  0.50533444  0.02267692    -2.47700
O42         O  0.56719992  0.50597880  0.95821038    -0.79700
O43         O  0.51958247  0.44989707  0.02298661    -0.71900
O44         O  0.51346017  0.55533740  0.95812998    -2.32800
O45         O  0.51886193  0.45085503  0.95808049    -2.29100
O46         O  0.51377395  0.55429279  0.02414279    -0.73600
H47         H  0.44560484  0.49921100  0.03853538     0.78300
H48         H  0.51250223  0.57513819  0.94341394     0.79400
H49         H  0.58784923  0.50629122  0.03714851     0.81700
H50         H  0.51958034  0.43115691  0.94315500     0.79300
H51         H  0.47829868  0.62188332  0.97677381     0.42300
H52         H  0.53917610  0.62328912  0.01104611     0.41300
H53         H  0.63433428  0.54137346  0.99921481     0.41000
H54         H  0.63775877  0.47490815  0.00743497     0.38900
H55         H  0.55983809  0.38537892  0.96602070     0.42000
H56         H  0.48142111  0.38200319  0.96397825     0.36800
H57         H  0.39731006  0.45901751  0.00273198     0.42900
H58         H  0.39727898  0.52702253  0.01015586     0.39300
H59         H  0.64044710  0.43621138  0.99638081     0.44300
H60         H  0.45876503  0.37629159  0.99606353     0.43000
H61         H  0.39248063  0.56559696  0.99946228     0.43100
H62         H  0.57665320  0.62917759  0.99860556     0.43500
O63         O  0.43683282  0.94194362  0.43485768    -0.75400
O64         O  0.46804883  0.90202811  0.46391947    -0.54300
C65         C  0.44575189  0.91069147  0.44164469     0.78300
O66         O  0.56736715  0.05727182  0.42582294    -0.60000
O67         O  0.54372632  0.09747238  0.46087078    -0.53000
C68         C  0.56243771  0.08853795  0.43570298     0.70300
O69         O  0.56664153  0.94060186  0.42834979    -0.74600
O70         O  0.53912486  0.90162308  0.46187437    -0.55100
C71         C  0.55938560  0.90959156  0.43758852     0.76300
O72         O  0.43300113  0.05891144  0.43870067    -0.59700
O73         O  0.46965060  0.09826973  0.46174507    -0.52800
C74         C  0.44423694  0.08983048  0.44304750     0.72900
Zr75       Zr  0.45093221  0.00039347  0.45387244     2.54700
O76         O  0.44292360  0.00196242  0.39299480    -0.80300
O77         O  0.38986905  0.99831094  0.46519697    -0.93700
Zr78       Zr  0.55254891  0.99940450  0.44576404     2.64700
O79         O  0.54782788  0.99652610  0.38459010    -0.98600
O80         O  0.61459603  0.00014036  0.44292706    -0.80700
O81         O  0.50146005  0.96698109  0.44973197    -0.84100
O82         O  0.50204056  0.03285464  0.44850604    -2.18800
O83         O  0.44162474  0.06067543  0.56853252    -0.67500
O84         O  0.47125689  0.09962486  0.53676350    -0.52000
C85         C  0.44950213  0.09165771  0.55981254     0.71300
O86         O  0.57810874  0.94279465  0.56164021    -0.60400
O87         O  0.54449860  0.90259195  0.53575792    -0.52300
C88         C  0.56892100  0.91155983  0.55555072     0.73100
O89         O  0.58041109  0.05881748  0.55890305    -0.71800
O90         O  0.54564381  0.09842889  0.53370049    -0.50400
C91         C  0.57072009  0.08992220  0.55281927     0.74500
O92         O  0.44066857  0.94491196  0.57064744    -0.67100
O93         O  0.47104520  0.90426036  0.54166203    -0.54300
C94         C  0.44888854  0.91356489  0.56380921     0.72900
Zr95       Zr  0.45882793  0.00223697  0.55332126     2.77500
O96         O  0.46639769  0.00438041  0.61430778    -0.97800
O97         O  0.39697255  0.00481179  0.55801045    -0.78700
Zr98       Zr  0.56019218  0.00077073  0.54595746     2.70100
O99         O  0.55932173  0.00130216  0.60743264    -0.79900
O100        O  0.62227178  0.99912099  0.54333119    -0.99000
Zr101      Zr  0.50525328  0.93493540  0.50073930     2.21500
Zr102      Zr  0.50669814  0.06619732  0.49878971     2.11100
O103        O  0.51000425  0.03466839  0.55015309    -2.47700
O104        O  0.50920213  0.96818229  0.55100987    -0.79700
O105        O  0.45475755  0.03494248  0.50304028    -0.71900
O106        O  0.55706137  0.96679765  0.49627232    -2.32800
O107        O  0.45379988  0.96750676  0.50412984    -2.29100
O108        O  0.55780990  0.03337760  0.49532156    -0.73600
H109        H  0.50070178  0.04746404  0.42878455     0.78300
H110        H  0.57662118  0.95169171  0.49497213     0.79400
H111        H  0.51151377  0.04990359  0.56938591     0.81700
H112        H  0.43411730  0.95256222  0.50551701     0.79300
H113        H  0.61995006  0.99418997  0.41919238     0.42300
H114        H  0.62872823  0.01924612  0.52931424     0.41300
H115        H  0.58366014  0.00138885  0.61408174     0.41000
H116        H  0.44306773  0.00769204  0.62334881     0.38900
H117        H  0.38859433  0.98637161  0.54285256     0.42000
H118        H  0.38427232  0.97346116  0.46675097     0.36800
H119        H  0.46130949  0.01725336  0.38462891     0.42900
H120        H  0.53240716  0.01576704  0.37851099     0.39300
H121        H  0.47257785  0.98054644  0.62087010     0.44300
H122        H  0.37913650  0.00598728  0.44386039     0.43000
H123        H  0.57050486  0.00378927  0.37616935     0.43100
H124        H  0.62988183  0.00519696  0.56640857     0.43500
O125        O  0.95294057  0.56753866  0.41825418    -0.75400
O126        O  0.91451528  0.53829393  0.45081613    -0.54300
C127        C  0.92230734  0.56031583  0.42784176     0.78300
O128        O  0.06798451  0.43180151  0.41696721    -0.60000
O129        O  0.10737456  0.45949633  0.44972526    -0.53000
C130        C  0.09872690  0.43812473  0.42650995     0.70300
O131        O  0.95316275  0.43293741  0.41720169    -0.74600
O132        O  0.91430269  0.46090290  0.45031697    -0.55100
C133        C  0.92250934  0.43937306  0.42696070     0.76300
O134        O  0.06855674  0.56698476  0.41704550    -0.59700
O135        O  0.10784845  0.53804954  0.44885128    -0.52800
C136        C  0.09936468  0.56000682  0.42602152     0.72900
Zr137      Zr  0.01096365  0.55113898  0.43489304     2.54700
O138        O  0.00995324  0.55168041  0.37343892    -0.80300
O139        O  0.01143103  0.61386690  0.43737374    -0.93700
Zr140      Zr  0.01067595  0.44913649  0.43390107     2.64700
O141        O  0.00969225  0.45291365  0.37253116    -0.98600
O142        O  0.00797249  0.38645462  0.43260861    -0.80700
O143        O  0.97750855  0.50020929  0.43419178    -0.84100
O144        O  0.04409905  0.49997180  0.43361534    -2.18800
O145        O  0.07041491  0.56941547  0.54904195    -0.67500
O146        O  0.10943033  0.53618023  0.52125274    -0.52000
C147        C  0.10124389  0.56023402  0.54207792     0.71300
O148        O  0.95441168  0.42981161  0.55118777    -0.60400
O149        O  0.91505706  0.46375106  0.52485555    -0.52300
C150        C  0.92361715  0.43971873  0.54554648     0.73100
O151        O  0.06886346  0.42938305  0.55043118    -0.71800
O152        O  0.10811295  0.46257438  0.52281428    -0.50400
C153        C  0.09956955  0.43890800  0.54390544     0.74500
O154        O  0.95557507  0.56469236  0.55581118    -0.67100
O155        O  0.91572312  0.53783436  0.52297639    -0.54300
C156        C  0.92469363  0.55829385  0.54686179     0.72900
Zr157      Zr  0.01242861  0.55033023  0.53564772     2.77500
O158        O  0.01405693  0.54883742  0.59714740    -0.97800
O159        O  0.00779742  0.61289744  0.53280002    -0.78700
Zr160      Zr  0.01165626  0.44732123  0.53449623     2.70100
O161        O  0.01051139  0.44641010  0.59599844    -0.79900
O162        O  0.01172227  0.38464664  0.53111689    -0.99000
Zr163      Zr  0.94676536  0.49958719  0.48600265     2.21500
Zr164      Zr  0.07615256  0.49919411  0.48482772     2.11100
O165        O  0.04466382  0.49868310  0.53615526    -2.47700
O166        O  0.97937812  0.49901289  0.53646391    -0.79700
O167        O  0.04447690  0.55143730  0.48492606    -0.71900
O168        O  0.97851937  0.44740600  0.48463712    -2.32800
O169        O  0.97905392  0.55150706  0.48580474    -2.29100
O170        O  0.04405152  0.44714554  0.48392073    -0.73600
H171        H  0.05895214  0.50000519  0.41410271     0.78300
H172        H  0.96365256  0.42748654  0.48457959     0.79400
H173        H  0.05953871  0.49854098  0.55553811     0.81700
H174        H  0.96427624  0.57146929  0.48622155     0.79300
H175        H  0.00628776  0.37960125  0.45663120     0.42300
H176        H  0.03350617  0.37871485  0.51984437     0.41300
H177        H  0.99277754  0.46344597  0.60226714     0.41000
H178        H  0.03664627  0.53903725  0.60285837     0.38900
H179        H  0.00599348  0.61809424  0.50839090     0.42000
H180        H  0.00984938  0.62123907  0.41348901     0.36800
H181        H  0.01904931  0.52886559  0.36676417     0.42900
H182        H  0.03158840  0.46394532  0.36631989     0.39300
H183        H  0.01550625  0.57334144  0.60402503     0.44300
H184        H  0.03494218  0.62002332  0.44423059     0.43000
H185        H  0.01207223  0.42874772  0.36480261     0.43100
H186        H  0.01473450  0.37689717  0.55474959     0.43500
C187        C  0.72961067  0.31789297  0.31394297     0.80100
N188        N  0.71231612  0.29195003  0.32925872    -0.78200
C189        C  0.68426277  0.27795811  0.31464516     0.82600
N190        N  0.67281178  0.29093966  0.28486838    -0.78100
C191        C  0.68959684  0.31732137  0.26937356     0.82600
N192        N  0.71825030  0.33048482  0.28388326    -0.79900
C193        C  0.72116970  0.67409931  0.32217057     0.80100
N194        N  0.71034319  0.66189567  0.29197782    -0.78200
C195        C  0.68297248  0.67618513  0.27643926     0.82600
N196        N  0.66672524  0.70329182  0.29099201    -0.78100
C197        C  0.67715448  0.71530722  0.32144920     0.82600
N198        N  0.70410050  0.70035545  0.33723636    -0.79900
C199        C  0.68950946  0.32867045  0.70827972     0.80100
N200        N  0.71939022  0.34045852  0.69573179    -0.78200
C201        C  0.73472913  0.32412024  0.66961509     0.82600
N202        N  0.72020397  0.29545884  0.65610692    -0.78100
C203        C  0.68997630  0.28363322  0.66840116     0.82600
N204        N  0.67449497  0.30066304  0.69418392    -0.79900
C205        C  0.33785522  0.71853514  0.31284650     0.80100
N206        N  0.30909192  0.70484951  0.32630341    -0.78200
C207        C  0.29499470  0.67604870  0.31283303     0.82600
N208        N  0.30994252  0.66064386  0.28580084    -0.78100
C209        C  0.33883638  0.67418271  0.27219627     0.82600
N210        N  0.35277094  0.70305455  0.28586154    -0.79900
C211        C  0.32761810  0.67480092  0.71590539     0.80100
N212        N  0.30074244  0.66023600  0.69967017    -0.78200
C213        C  0.28659861  0.67609570  0.67245292     0.82600
N214        N  0.30008842  0.70618342  0.66095137    -0.78100
C215        C  0.32767015  0.72017190  0.67653325     0.82600
N216        N  0.34122674  0.70447737  0.70396436    -0.79900
C217        C  0.33248458  0.33179772  0.71257574     0.80100
N218        N  0.30213406  0.34396920  0.70108470    -0.78200
C219        C  0.28623130  0.32832149  0.67469061     0.82600
N220        N  0.30074756  0.30025578  0.66004428    -0.78100
C221        C  0.33126267  0.28839552  0.67110637     0.82600
N222        N  0.34713763  0.30438848  0.69708432    -0.79900
C223        C  0.69736739  0.67892780  0.71285645     0.80100
N224        N  0.72487495  0.66497587  0.69708058    -0.78200
C225        C  0.73827904  0.68031766  0.66917115     0.82600
N226        N  0.72353867  0.70943800  0.65675273    -0.78100
C227        C  0.69583957  0.72339053  0.67225426     0.82600
N228        N  0.68292644  0.70800372  0.70028946    -0.79900
C229        C  0.34106776  0.28550738  0.31620001     0.80100
N230        N  0.35605693  0.29982294  0.28868380    -0.78200
C231        C  0.34201151  0.32786214  0.27344935     0.82600
N232        N  0.31297254  0.34199382  0.28639842    -0.78100
C233        C  0.29830437  0.32816824  0.31446284     0.82600
N234        N  0.31240076  0.29993867  0.32895255    -0.79900
C235        C  0.18427083  0.31877801  0.60258433    -0.17900
C236        C  0.15836073  0.33432481  0.58371378    -0.20100
C237        C  0.15490771  0.37033262  0.58330222     0.20500
C238        C  0.17741171  0.39089302  0.60254008    -0.03000
C239        C  0.20304409  0.37517030  0.62213979    -0.06100
C240        C  0.20679624  0.33897513  0.62172189     0.20800
C241        C  0.22511117  0.39568924  0.64186156     0.19000
C242        C  0.22120073  0.43166387  0.64201855    -0.17600
C243        C  0.19606953  0.44729056  0.62222843    -0.19800
C244        C  0.17433932  0.42717040  0.60216790     0.20500
C245        C  0.14942349  0.44264125  0.58191846    -0.32800
C246        C  0.12686185  0.42226333  0.56307587     0.01200
C247        C  0.12934624  0.38619450  0.56406938    -0.24200
C248        C  0.23335575  0.32367056  0.63999670    -0.28700
C249        C  0.25584128  0.34402483  0.65912533     0.06800
C250        C  0.25112262  0.37992970  0.66053900    -0.27400
H251        H  0.18673665  0.29094611  0.60216277     0.11600
H252        H  0.14122803  0.31820458  0.56917696     0.12700
H253        H  0.23781605  0.44774466  0.65717550     0.11800
H254        H  0.19360053  0.47510608  0.62263244     0.11000
H255        H  0.14687340  0.47048827  0.58150475     0.16400
H256        H  0.11163474  0.37063183  0.54957725     0.12300
H257        H  0.23685636  0.29594729  0.63896138     0.15200
H258        H  0.26863231  0.39578254  0.67495145     0.14900
C259        C  0.21148661  0.55608441  0.60183562    -0.17900
C260        C  0.23660720  0.57196318  0.62147996    -0.20100
C261        C  0.23452504  0.60727825  0.62893949     0.20500
C262        C  0.20644025  0.62664403  0.61721487    -0.03000
C263        C  0.18055092  0.61036253  0.59827913    -0.06100
C264        C  0.18347478  0.57507828  0.58997834     0.20800
C265        C  0.15181142  0.62939217  0.58762681     0.19000
C266        C  0.14937825  0.66454740  0.59575560    -0.17600
C267        C  0.17559018  0.68095257  0.61356686    -0.19800
C268        C  0.20428435  0.66228339  0.62428369     0.20500
C269        C  0.23082972  0.67853148  0.64197951    -0.32800
C270        C  0.25865473  0.65924234  0.65391415     0.01200
C271        C  0.26015385  0.62361834  0.64768565    -0.24200
C272        C  0.15817233  0.55934004  0.57026820    -0.28700
C273        C  0.12913105  0.57795018  0.56016816     0.06800
C274        C  0.12601998  0.61290879  0.56910383    -0.27400
H275        H  0.21396525  0.52893062  0.59592202     0.11600
H276        H  0.25792754  0.55671765  0.63044158     0.12700
H277        H  0.12738309  0.67947294  0.58795877     0.11800
H278        H  0.17334970  0.70822930  0.61908367     0.11000
H279        H  0.22960666  0.70599262  0.64702477     0.16400
H280        H  0.28179554  0.60881801  0.65668255     0.12300
H281        H  0.16046806  0.53227270  0.56378998     0.15200
H282        H  0.10365677  0.62732411  0.56134182     0.14900
C283        C  0.15380043  0.60545999  0.32281315    -0.17900
C284        C  0.18163909  0.62102771  0.30677709    -0.20100
C285        C  0.20935141  0.63320233  0.32573972     0.20500
C286        C  0.20899813  0.62972926  0.36125040    -0.03000
C287        C  0.18126330  0.61342263  0.37734185    -0.06100
C288        C  0.15343078  0.60141013  0.35802953     0.20800
C289        C  0.18181698  0.60833882  0.41264002     0.19000
C290        C  0.20953043  0.62043560  0.43163374    -0.17600
C291        C  0.23671262  0.63719938  0.41576479    -0.19800
C292        C  0.23675902  0.64175139  0.38062754     0.20500
C293        C  0.26440137  0.65749578  0.36445486    -0.32800
C294        C  0.26513319  0.66044837  0.32915074     0.01200
C295        C  0.23768157  0.64823694  0.30984476    -0.24200
C296        C  0.12615059  0.58481000  0.37421849    -0.28700
C297        C  0.12712901  0.57884867  0.40918657     0.06800
C298        C  0.15496416  0.59064814  0.42823805    -0.27400
H299        H  0.13278885  0.59608739  0.30761147     0.11600
H300        H  0.18157825  0.62337795  0.27951461     0.12700
H301        H  0.21028946  0.61671529  0.45874252     0.11800
H302        H  0.25795247  0.64613754  0.43091459     0.11000
H303        H  0.28586583  0.66661512  0.37923497     0.16400
H304        H  0.23832273  0.65072132  0.28257874     0.12300
H305        H  0.10471731  0.57547766  0.35953621     0.15200
H306        H  0.15553404  0.58624681  0.45528270     0.14900
C307        C  0.20317668  0.36864501  0.43240089    -0.17900
C308        C  0.23111599  0.35317528  0.41656360    -0.20100
C309        C  0.23512929  0.35545626  0.38141164     0.20500
C310        C  0.21051652  0.37291300  0.36188312    -0.03000
C311        C  0.18197084  0.38791318  0.37777872    -0.06100
C312        C  0.17862569  0.38621151  0.41325796     0.20800
C313        C  0.15705076  0.40501305  0.35823505     0.19000
C314        C  0.16096027  0.40701715  0.32307492    -0.17600
C315        C  0.18959904  0.39263595  0.30737162    -0.19800
C316        C  0.21460192  0.37569880  0.32653684     0.20500
C317        C  0.24364919  0.36158811  0.31103896    -0.33600
C318        C  0.26808686  0.34398535  0.33038388     0.01200
C319        C  0.26348843  0.34080754  0.36548883    -0.24200
C320        C  0.15103830  0.40253365  0.42897512    -0.28700
C321        C  0.12635350  0.41961098  0.40959817     0.06800
C322        C  0.12901002  0.42030729  0.37429753    -0.27400
H323        H  0.20082970  0.36697894  0.45962190     0.11600
H324        H  0.24981109  0.33977524  0.43185276     0.12700
H325        H  0.14206118  0.42007632  0.30775360     0.11800
H326        H  0.19223335  0.39483139  0.28022263     0.11000
H327        H  0.24696876  0.36376818  0.28394366     0.16400
H328        H  0.28238023  0.32740617  0.38057721     0.12300
H329        H  0.14865859  0.40198903  0.45626835     0.15200
H330        H  0.10991467  0.43381784  0.35954867     0.14900
C331        C  0.79793331  0.65080484  0.56320665    -0.17900
C332        C  0.82319939  0.63241331  0.54596517    -0.20100
C333        C  0.84726603  0.61288370  0.56385914     0.20500
C334        C  0.84608124  0.61200721  0.59948245    -0.03000
C335        C  0.82013174  0.62990881  0.61681868    -0.06100
C336        C  0.79601978  0.64949768  0.59858338     0.20800
C337        C  0.81818245  0.62799714  0.65235554     0.19000
C338        C  0.84279268  0.60912512  0.67027376    -0.17600
C339        C  0.86905996  0.59210580  0.65313845    -0.19800
C340        C  0.87078707  0.59321330  0.61778807     0.20500
C341        C  0.89675088  0.57589074  0.60038414    -0.32800
C342        C  0.89752437  0.57626289  0.56500216     0.01200
C343        C  0.87266032  0.59441795  0.54681727    -0.24200
C344        C  0.77011166  0.66698618  0.61601396    -0.28700
C345        C  0.76728892  0.66417096  0.65131090     0.06800
C346        C  0.79148158  0.64472955  0.66931289    -0.27400
H347        H  0.77965195  0.66576011  0.54884305     0.11600
H348        H  0.82403260  0.63361526  0.51865134     0.12700
H349        H  0.84174830  0.60756580  0.69756874     0.11800
H350        H  0.88784923  0.57781650  0.66751831     0.11000
H351        H  0.91603583  0.56166669  0.61422485     0.16400
H352        H  0.87369839  0.59486212  0.51946022     0.12300
H353        H  0.75140963  0.68178624  0.60199678     0.15200
H354        H  0.78957001  0.64275011  0.69655642     0.14900
C355        C  0.84930968  0.31980587  0.61805215    -0.17900
C356        C  0.87613083  0.33639418  0.60132501    -0.20100
C357        C  0.87343131  0.37131918  0.59235592     0.20500
C358        C  0.84363364  0.38987250  0.60070853    -0.03000
C359        C  0.81712878  0.37348291  0.61857223    -0.06100
C360        C  0.81973963  0.33810821  0.62681728     0.20800
C361        C  0.78782061  0.39239190  0.62776340     0.19000
C362        C  0.78474119  0.42709364  0.61823330    -0.17600
C363        C  0.81055117  0.44302827  0.59958565    -0.19800
C364        C  0.84013241  0.42470722  0.59090007     0.20500
C365        C  0.86621985  0.44059876  0.57248104    -0.32800
C366        C  0.89614243  0.42243379  0.56446340     0.01200
C367        C  0.89977687  0.38792159  0.57478513    -0.24200
C368        C  0.79258681  0.32168887  0.64338768    -0.28700
C369        C  0.76378385  0.34070453  0.65303578     0.06800
C370        C  0.76177593  0.37606248  0.64573488    -0.27400
H371        H  0.85173858  0.29269245  0.62423233     0.11600
H372        H  0.89879999  0.32177440  0.59497128     0.12700
H373        H  0.76217681  0.44177785  0.62483357     0.11800
H374        H  0.80746250  0.46973279  0.59210653     0.11000
H375        H  0.86350144  0.46732824  0.56486516     0.16400
H376        H  0.92277342  0.37378238  0.56844639     0.12300
H377        H  0.79394970  0.29438346  0.64915399     0.15200
H378        H  0.73922543  0.39054309  0.65291703     0.14900
C379        C  0.78660578  0.35893843  0.41764811    -0.17900
C380        C  0.81314599  0.37696360  0.43333876    -0.20100
C381        C  0.84073851  0.38938415  0.41430022     0.20500
C382        C  0.84192438  0.38309725  0.37920712    -0.03000
C383        C  0.81474312  0.36570274  0.36325818    -0.06100
C384        C  0.78696338  0.35355432  0.38257929     0.20800
C385        C  0.81508638  0.36106490  0.32789613     0.19000
C386        C  0.84324485  0.37242528  0.30905601    -0.17600
C387        C  0.87062564  0.38880598  0.32498776    -0.19800
C388        C  0.86997243  0.39472039  0.35992841     0.20500
C389        C  0.89656303  0.41258370  0.37583348    -0.32800
C390        C  0.89484336  0.42003588  0.41050304     0.01200
C391        C  0.86697947  0.40828377  0.42962984    -0.24200
C392        C  0.75975141  0.33688330  0.36635712    -0.28700
C393        C  0.75934068  0.33349612  0.33095943     0.06800
C394        C  0.78709841  0.34555474  0.31193164    -0.27400
H395        H  0.76548974  0.34975560  0.43285979     0.11600
H396        H  0.81200391  0.38135309  0.46034110     0.12700
H397        H  0.84401633  0.36878775  0.28194220     0.11800
H398        H  0.89202526  0.39745779  0.30986646     0.11000
H399        H  0.91815243  0.42154913  0.36110795     0.16400
H400        H  0.86600809  0.41347293  0.45652543     0.12300
H401        H  0.73830476  0.32765967  0.38112869     0.15200
H402        H  0.78698610  0.34259383  0.28470979     0.14900
C403        C  0.83761987  0.62770466  0.31325178    -0.17900
C404        C  0.86609031  0.61201122  0.32799984    -0.20100
C405        C  0.86619491  0.60400121  0.36257020     0.20500
C406        C  0.83742931  0.61226499  0.38252988    -0.03000
C407        C  0.80892534  0.62847695  0.36776743    -0.06100
C408        C  0.80889142  0.63580513  0.33287672     0.20800
C409        C  0.78031018  0.63695969  0.38785616     0.19000
C410        C  0.78041845  0.62910908  0.42241138    -0.17600
C411        C  0.80845624  0.61257054  0.43692864    -0.19800
C412        C  0.83695550  0.60398960  0.41719681     0.20500
C413        C  0.86487619  0.58703155  0.43153621    -0.32800
C414        C  0.89366153  0.57882621  0.41195638     0.01200
C415        C  0.89436705  0.58764120  0.37753511    -0.24200
C416        C  0.77995894  0.65072034  0.31819732    -0.28700
C417        C  0.75147571  0.65908280  0.33809461     0.06800
C418        C  0.75191403  0.65268575  0.37293079    -0.27400
H419        H  0.83800044  0.63335769  0.28645555     0.11600
H420        H  0.88791260  0.60586911  0.31230579     0.12700
H421        H  0.75865515  0.63540028  0.43813526     0.11800
H422        H  0.80778926  0.60632965  0.46357907     0.11000
H423        H  0.86434304  0.58040068  0.45812455     0.16400
H424        H  0.91643160  0.58103103  0.36232781     0.12300
H425        H  0.77962187  0.65608030  0.29132062     0.15200
H426        H  0.72978756  0.65905941  0.38816362     0.14900
C427        C  0.67731217  0.14474980  0.59191381    -0.17900
C428        C  0.69404080  0.17206583  0.60800309    -0.20100
C429        C  0.67530709  0.19927925  0.62226742     0.20500
C430        C  0.63934929  0.19897807  0.62029185    -0.03000
C431        C  0.62253875  0.17181606  0.60351073    -0.06100
C432        C  0.64160085  0.14440197  0.58950597     0.20800
C433        C  0.58667160  0.17228713  0.60048530     0.19000
C434        C  0.56789471  0.19942075  0.61470441    -0.17600
C435        C  0.58449941  0.22600355  0.63186998    -0.19800
C436        C  0.62017008  0.22606818  0.63466997     0.20500
C437        C  0.63700594  0.25308686  0.65108812    -0.32800
C438        C  0.67280366  0.25398210  0.65249729     0.01200
C439        C  0.69184594  0.22702173  0.63806901    -0.24200
C440        C  0.62456550  0.11729822  0.57319993    -0.28700
C441        C  0.58891359  0.11802055  0.56984994     0.06800
C442        C  0.57017707  0.14563392  0.58326561    -0.27400
H443        H  0.69232257  0.12402918  0.58111641     0.11600
H444        H  0.72164953  0.17192755  0.60925829     0.12700
H445        H  0.54035973  0.20004080  0.61259558     0.11800
H446        H  0.56946149  0.24671034  0.64265669     0.11000
H447        H  0.62225015  0.27401411  0.66190508     0.16400
H448        H  0.71946857  0.22758120  0.63932409     0.12300
H449        H  0.63896984  0.09601398  0.56258653     0.15200
H450        H  0.54261977  0.14595470  0.58087398     0.14900
C451        C  0.34573777  0.14322580  0.60900980    -0.17900
C452        C  0.32871609  0.17146849  0.62307771    -0.20100
C453        C  0.34651112  0.20191438  0.63044606     0.20500
C454        C  0.38181358  0.20401195  0.62352939    -0.03000
C455        C  0.39880290  0.17581861  0.60866663    -0.06100
C456        C  0.38068674  0.14521623  0.60153572     0.20800
C457        C  0.43384400  0.17832783  0.60078050     0.19000
C458        C  0.45176223  0.20860891  0.60863216    -0.17600
C459        C  0.43509076  0.23629087  0.62408242    -0.19800
C460        C  0.40015870  0.23424529  0.63151559     0.20500
C461        C  0.38327462  0.26176823  0.64704948    -0.32800
C462        C  0.34820886  0.25973506  0.65389337     0.01200
C463        C  0.32976719  0.23013385  0.64503334    -0.24200
C464        C  0.39772843  0.11735175  0.58656169    -0.28700
C465        C  0.43228734  0.12019163  0.57752759     0.06800
C466        C  0.45023364  0.15064878  0.58484225    -0.27400
H467        H  0.33148408  0.11992409  0.60365714     0.11600
H468        H  0.30167207  0.16942080  0.62840008     0.12700
H469        H  0.47865904  0.21089245  0.60279614     0.11800
H470        H  0.44947205  0.25936391  0.63005773     0.11000
H471        H  0.39730738  0.28491850  0.65364026     0.16400
H472        H  0.30269380  0.22870765  0.65052736     0.12300
H473        H  0.38385563  0.09386875  0.58087454     0.15200
H474        H  0.47701251  0.15267682  0.57826813     0.14900
C475        C  0.34335253  0.15906777  0.41134154    -0.17900
C476        C  0.32900264  0.18631238  0.39306138    -0.20100
C477        C  0.34933428  0.20651840  0.37159635     0.20500
C478        C  0.38439363  0.19915939  0.36827017    -0.03000
C479        C  0.39888389  0.17178253  0.38676930    -0.06100
C480        C  0.37824820  0.15155646  0.40836833     0.20800
C481        C  0.43408384  0.16482464  0.38381988     0.19000
C482        C  0.45437327  0.18491917  0.36226506    -0.17600
C483        C  0.43997349  0.21197399  0.34384291    -0.19800
C484        C  0.40507369  0.21937993  0.34675142     0.20500
C485        C  0.39061914  0.24700056  0.32896895    -0.32800
C486        C  0.35587517  0.25494833  0.33283443     0.01200
C487        C  0.33533347  0.23433084  0.35386344    -0.24200
C488        C  0.39297660  0.12428070  0.42659125    -0.28700
C489        C  0.42807102  0.11768175  0.42385182     0.06800
C490        C  0.44845070  0.13799072  0.40260545    -0.27400
H491        H  0.32717750  0.14393502  0.42786950     0.11600
H492        H  0.30202286  0.19171339  0.39585877     0.12700
H493        H  0.48143134  0.17978021  0.35975343     0.11800
H494        H  0.45619137  0.22726658  0.32749675     0.11000
H495        H  0.40660707  0.26287611  0.31290419     0.16400
H496        H  0.30841828  0.24010566  0.35668518     0.12300
H497        H  0.37742141  0.10860057  0.44325069     0.15200
H498        H  0.47552545  0.13257338  0.40049831     0.14900
C499        C  0.64860306  0.22070621  0.41990656    -0.17900
C500        C  0.63080973  0.19472112  0.43685746    -0.20100
C501        C  0.61348893  0.16912341  0.41866017     0.20500
C502        C  0.61401859  0.16966250  0.38301853    -0.03000
C503        C  0.63134269  0.19635952  0.36590837    -0.06100
C504        C  0.64885555  0.22184023  0.38450270     0.20800
C505        C  0.63125939  0.19748002  0.33027006     0.19000
C506        C  0.61459917  0.17134635  0.31210321    -0.17600
C507        C  0.59799467  0.14445459  0.32907563    -0.19800
C508        C  0.59743979  0.14344166  0.36450762     0.20500
C509        C  0.58083446  0.11662355  0.38181023    -0.32800
C510        C  0.57993975  0.11633558  0.41728201     0.01200
C511        C  0.59596133  0.14279533  0.43551015    -0.24200
C512        C  0.66629403  0.24807323  0.36741844    -0.28700
C513        C  0.66573908  0.24986709  0.33197955     0.06800
C514        C  0.64798157  0.22461211  0.31351480    -0.27400
H515        H  0.66200417  0.24006291  0.43450313     0.11600
H516        H  0.63080329  0.19449788  0.46421975     0.12700
H517        H  0.61454126  0.17161705  0.28474674     0.11800
H518        H  0.58548354  0.12449926  0.31447997     0.11000
H519        H  0.56820437  0.09628238  0.36779444     0.16400
H520        H  0.59544788  0.14236500  0.46289565     0.12300
H521        H  0.67984986  0.26752962  0.38178445     0.15200
H522        H  0.64781433  0.22568681  0.28616077     0.14900
C523        C  0.34391397  0.86449065  0.61242351    -0.17900
C524        C  0.32661411  0.83688304  0.62735869    -0.20100
C525        C  0.34436341  0.80702986  0.63690275     0.20500
C526        C  0.37995517  0.80501769  0.63157072    -0.03000
C527        C  0.39720961  0.83242729  0.61570210    -0.06100
C528        C  0.37911169  0.86238214  0.60624801     0.20800
C529        C  0.43244831  0.82960078  0.60880360     0.19000
C530        C  0.45031957  0.79996678  0.61872768    -0.17600
C531        C  0.43338827  0.77317248  0.63530572    -0.19800
C532        C  0.39822571  0.77537976  0.64159334     0.20500
C533        C  0.38086982  0.74822535  0.65721533    -0.32800
C534        C  0.34537271  0.74976586  0.66169311     0.01200
C535        C  0.32715778  0.77900683  0.65137990    -0.24200
C536        C  0.39645566  0.88938892  0.59021706    -0.28700
C537        C  0.43128413  0.88616890  0.58246493     0.06800
C538        C  0.44912378  0.85629396  0.59175854    -0.27400
H539        H  0.32967052  0.88728291  0.60522738     0.11600
H540        H  0.29934285  0.83885644  0.63140836     0.12700
H541        H  0.47737514  0.79750503  0.61362852     0.11800
H542        H  0.44769070  0.75050364  0.64276252     0.11000
H543        H  0.39476875  0.72535504  0.66493964     0.16400
H544        H  0.29975984  0.78002892  0.65504147     0.12300
H545        H  0.38267293  0.91240636  0.58273081     0.15200
H546        H  0.47606218  0.85399454  0.58592051     0.14900
C547        C  0.69547799  0.83048676  0.60407967    -0.17900
C548        C  0.67757709  0.85695403  0.58785576    -0.20100
C549        C  0.64182465  0.85816100  0.58932847     0.20500
C550        C  0.62391849  0.83280471  0.60778846    -0.03000
C551        C  0.64202136  0.80663700  0.62483917    -0.06100
C552        C  0.67795002  0.80512663  0.62251393     0.20800
C553        C  0.62409825  0.78160999  0.64365890     0.19000
C554        C  0.58834327  0.78277465  0.64510600    -0.17600
C555        C  0.57036692  0.80826383  0.62762261    -0.19800
C556        C  0.58789123  0.83327377  0.60880784     0.20500
C557        C  0.57004347  0.85864917  0.59087011    -0.32800
C558        C  0.58779483  0.88413724  0.57290337     0.01200
C559        C  0.62360597  0.88404826  0.57243803    -0.24200
C560        C  0.69559726  0.77797890  0.63821400    -0.28700
C561        C  0.67781421  0.75300978  0.65703035     0.06800
C562        C  0.64215807  0.75537751  0.66009396    -0.27400
H563        H  0.72303972  0.82979207  0.60212034     0.11600
H564        H  0.69167321  0.87621367  0.57375544     0.12700
H565        H  0.57424283  0.76364618  0.65936967     0.11800
H566        H  0.54274779  0.80837224  0.62875540     0.11000
H567        H  0.54238661  0.85909107  0.59144460     0.16400
H568        H  0.63716802  0.90379137  0.55841666     0.12300
H569        H  0.72310553  0.77628362  0.63587305     0.15200
H570        H  0.62827884  0.73596801  0.67424078     0.14900
C571        C  0.62636329  0.83163500  0.31795278    -0.17900
C572        C  0.61055817  0.85928487  0.33445799    -0.20100
C573        C  0.60142860  0.85662032  0.36864811     0.20500
C574        C  0.60827693  0.82578257  0.38636616    -0.03000
C575        C  0.62477639  0.79819611  0.36993409    -0.06100
C576        C  0.63369870  0.80106115  0.33549938     0.20800
C577        C  0.63263057  0.76787021  0.38809063     0.19000
C578        C  0.62318891  0.76500103  0.42211939    -0.17600
C579        C  0.60629647  0.79208991  0.43822610    -0.19800
C580        C  0.59890900  0.82256669  0.42062658     0.20500
C581        C  0.58252747  0.84995631  0.43683758    -0.32800
C582        C  0.57600634  0.88089786  0.41957128     0.01200
C583        C  0.58566603  0.88419735  0.38551154    -0.24200
C584        C  0.65014920  0.77342821  0.31943597    -0.28700
C585        C  0.65877702  0.74368692  0.33777896     0.06800
C586        C  0.65005336  0.74103853  0.37199539    -0.27400
H587        H  0.63314522  0.83428279  0.29154941     0.11600
H588        H  0.60543740  0.88273939  0.32047132     0.12700
H589        H  0.62892686  0.74181535  0.43629920     0.11800
H590        H  0.59927006  0.78932342  0.46455624     0.11000
H591        H  0.57546064  0.84744446  0.46320741     0.16400
H592        H  0.58050795  0.90800291  0.37208060     0.12300
H593        H  0.65709980  0.77535742  0.29299237     0.15200
H594        H  0.65650109  0.71785420  0.38593313     0.14900
C595        C  0.32838579  0.82935400  0.37335761    -0.17900
C596        C  0.34351663  0.85617712  0.39165046    -0.20100
C597        C  0.37894031  0.85673199  0.39687473     0.20500
C598        C  0.39939720  0.83031574  0.38298050    -0.03000
C599        C  0.38420289  0.80358644  0.36404707    -0.06100
C600        C  0.34846207  0.80279528  0.35974335     0.20800
C601        C  0.40472591  0.77729816  0.35001923     0.19000
C602        C  0.44016806  0.77810286  0.35476378    -0.17600
C603        C  0.45516658  0.80431419  0.37391768    -0.19800
C604        C  0.43499543  0.83032411  0.38839042     0.20500
C605        C  0.44977932  0.85626622  0.40827268    -0.32800
C606        C  0.42961269  0.88280651  0.42191806     0.01200
C607        C  0.39427723  0.88309338  0.41587683    -0.24200
C608        C  0.33343733  0.77509165  0.34251392    -0.28700
C609        C  0.35379241  0.74870152  0.32887483     0.06800
C610        C  0.38939608  0.75025666  0.33214838    -0.27400
H611        H  0.30094262  0.82923876  0.37008534     0.11600
H612        H  0.32745239  0.87627735  0.40207475     0.12700
H613        H  0.45625064  0.75815398  0.34407972     0.11800
H614        H  0.48255477  0.80413112  0.37758234     0.11000
H615        H  0.47709912  0.85626407  0.41259506     0.16400
H616        H  0.37871976  0.90353441  0.42647449     0.12300
H617        H  0.30593313  0.77393710  0.33979611     0.15200
H618        H  0.40504580  0.72969236  0.32190733     0.14900
C619        C  0.69963985  0.38382128  0.16220582    -0.17900
C620        C  0.68420363  0.40141769  0.13526522    -0.20100
C621        C  0.64850393  0.40379683  0.13303853     0.20500
C622        C  0.62824228  0.38807935  0.15820572    -0.03000
C623        C  0.64378290  0.36967213  0.18493418    -0.06100
C624        C  0.67967900  0.36784825  0.18722038     0.20800
C625        C  0.62331798  0.35338848  0.20955042     0.19000
C626        C  0.58769868  0.35599347  0.20759841    -0.17600
C627        C  0.57242054  0.37488024  0.18166729    -0.19800
C628        C  0.59238741  0.39090069  0.15683755     0.20500
C629        C  0.57703779  0.40964874  0.13068642    -0.32800
C630        C  0.59685484  0.42469566  0.10507283     0.01200
C631        C  0.63263095  0.42157842  0.10623775    -0.24200
C632        C  0.69482540  0.35045325  0.21466802    -0.28700
C633        C  0.67441738  0.33407967  0.23922870     0.06800
C634        C  0.63872555  0.33531107  0.23609350    -0.27400
H635        H  0.72722534  0.38267394  0.16344549     0.11600
H636        H  0.70021992  0.41338530  0.11628251     0.12700
H637        H  0.57163548  0.34378817  0.22640397     0.11800
H638        H  0.54495596  0.37703820  0.18105288     0.11000
H639        H  0.54949419  0.41193225  0.12979323     0.16400
H640        H  0.64800530  0.43347975  0.08667815     0.12300
H641        H  0.72237223  0.34957276  0.21690276     0.15200
H642        H  0.62280276  0.32321639  0.25510945     0.14900
C643        C  0.65729153  0.57277632  0.20955903    -0.17900
C644        C  0.64134167  0.55704051  0.18207682    -0.20100
C645        C  0.62447652  0.57707415  0.15779273     0.20500
C646        C  0.62365117  0.61331655  0.16108056    -0.03000
C647        C  0.63928209  0.62913896  0.18907699    -0.06100
C648        C  0.65632738  0.60873750  0.21328575     0.20800
C649        C  0.63740078  0.66526993  0.19311068     0.19000
C650        C  0.62028991  0.68524610  0.16892094    -0.17600
C651        C  0.60527243  0.66959488  0.14080615    -0.19800
C652        C  0.60680325  0.63368559  0.13665979     0.20500
C653        C  0.59135096  0.61766680  0.10885589    -0.32800
C654        C  0.59158299  0.58159980  0.10603008     0.01200
C655        C  0.60805009  0.56145819  0.13048905    -0.24200
C656        C  0.67158824  0.62459598  0.24113121    -0.28700
C657        C  0.66928922  0.66045664  0.24556231     0.06800
C658        C  0.65222306  0.68068749  0.22152254    -0.27400
H659        H  0.67011023  0.55679701  0.22807114     0.11600
H660        H  0.64212941  0.52919396  0.17984498     0.12700
H661        H  0.61849696  0.71298236  0.17176524     0.11800
H662        H  0.59219065  0.68554642  0.12245891     0.11000
H663        H  0.57825397  0.63304224  0.09001612     0.16400
H664        H  0.60819947  0.53358439  0.12806204     0.12300
H665        H  0.68426321  0.60888067  0.25998785     0.15200
H666        H  0.65046231  0.70837098  0.22499956     0.14900
C667        C  0.38000267  0.56931629  0.21459799    -0.17900
C668        C  0.39701067  0.55359570  0.18764948    -0.20100
C669        C  0.40912559  0.57345039  0.16057390     0.20500
C670        C  0.40375663  0.60943683  0.16035005    -0.03000
C671        C  0.38745328  0.62540489  0.18797102    -0.06100
C672        C  0.37537376  0.60520413  0.21514881     0.20800
C673        C  0.38333997  0.66156317  0.18842992     0.19000
C674        C  0.39440040  0.68124945  0.16076609    -0.17600
C675        C  0.40967997  0.66529013  0.13291982    -0.19800
C676        C  0.41483347  0.62947838  0.13263811     0.20500
C677        C  0.43121878  0.61335796  0.10538339    -0.32800
C678        C  0.43773201  0.57774636  0.10622279     0.01200
C679        C  0.42662892  0.55795919  0.13378533    -0.24200
C680        C  0.35892972  0.62128321  0.24238560    -0.28700
C681        C  0.35546521  0.65732524  0.24325225     0.06800
C682        C  0.36804819  0.67734730  0.21645366    -0.27400
H683        H  0.37078114  0.55343945  0.23518665     0.11600
H684        H  0.40066266  0.52588998  0.18796108     0.12700
H685        H  0.39110636  0.70899557  0.16061227     0.11800
H686        H  0.41789988  0.68101919  0.11180969     0.11000
H687        H  0.43980294  0.62857242  0.08402205     0.16400
H688        H  0.43121844  0.53036812  0.13408834     0.12300
H689        H  0.34946117  0.60589597  0.26325287     0.15200
H690        H  0.36516431  0.70515481  0.21711039     0.14900
C691        C  0.33663465  0.39455497  0.16691655    -0.17900
C692        C  0.35296863  0.40980996  0.13922749    -0.20100
C693        C  0.38843599  0.40686739  0.13519834     0.20500
C694        C  0.40748052  0.38749054  0.15876339    -0.03000
C695        C  0.39092250  0.37160763  0.18633575    -0.06100
C696        C  0.35543971  0.37579522  0.19084075     0.20800
C697        C  0.41004240  0.35228055  0.20984256     0.19000
C698        C  0.44531366  0.34838465  0.20525014    -0.17600
C699        C  0.46174572  0.36450344  0.17821224    -0.19800
C700        C  0.44320821  0.38461852  0.15524387     0.20500
C701        C  0.45981690  0.40227940  0.12910972    -0.32800
C702        C  0.44105085  0.42177723  0.10581700     0.01200
C703        C  0.40534589  0.42346210  0.10846633    -0.24200
C704        C  0.33954384  0.36165251  0.21946596    -0.28700
C705        C  0.35857732  0.34276250  0.24321635     0.06800
C706        C  0.39370699  0.33772242  0.23788196    -0.27400
H707        H  0.30933281  0.39776869  0.16982980     0.11600
H708        H  0.33794392  0.42447833  0.12131856     0.12700
H709        H  0.46030155  0.33335418  0.22290562     0.11800
H710        H  0.48898064  0.36137118  0.17536895     0.11000
H711        H  0.48730950  0.40067014  0.12664216     0.16400
H712        H  0.39095765  0.43852561  0.09032092     0.12300
H713        H  0.31236478  0.36518849  0.22317535     0.15200
H714        H  0.40857169  0.32317919  0.25605151     0.14900
C715        C  0.62742403  0.66799934  0.85261637    -0.17900
C716        C  0.64442380  0.68408199  0.82580957    -0.20100
C717        C  0.65451124  0.66499867  0.79738944     0.20500
C718        C  0.64751468  0.62931229  0.79599309    -0.03000
C719        C  0.62972032  0.61324190  0.82271593    -0.06100
C720        C  0.61982813  0.63264936  0.85126622     0.20800
C721        C  0.62171822  0.57780962  0.82077874     0.19000
C722        C  0.63215753  0.55862891  0.79255123    -0.17600
C723        C  0.65035420  0.57440873  0.76636990    -0.19800
C724        C  0.65803295  0.60972972  0.76777299     0.20500
C725        C  0.67559215  0.62592379  0.74125619    -0.32800
C726        C  0.68172152  0.66159654  0.74211838     0.01200
C727        C  0.67112599  0.68100144  0.77018032    -0.24200
C728        C  0.60240004  0.61638764  0.87785633    -0.28700
C729        C  0.59385354  0.58123397  0.87577805     0.06800
C730        C  0.60344599  0.56217252  0.84709908    -0.27400
H731        H  0.61996949  0.68328305  0.87430455     0.11600
H732        H  0.64969926  0.71147006  0.82731456     0.12700
H733        H  0.62631015  0.53137504  0.79075642     0.11800
H734        H  0.65816426  0.55903617  0.74486508     0.11000
H735        H  0.68341565  0.61106155  0.71938543     0.16400
H736        H  0.67595021  0.70853406  0.77080679     0.12300
H737        H  0.59486575  0.63119513  0.89985862     0.15200
H738        H  0.59718569  0.53496954  0.84557092     0.14900
C739        C  0.58729757  0.37626232  0.76321099    -0.17900
C740        C  0.57201526  0.39350456  0.79022443    -0.20100
C741        C  0.59163627  0.40409796  0.81794895     0.20500
C742        C  0.62707725  0.39790837  0.81833074    -0.03000
C743        C  0.64262489  0.38132044  0.79070137    -0.06100
C744        C  0.62251319  0.36994548  0.76328197     0.20800
C745        C  0.67818177  0.37569320  0.79072755     0.19000
C746        C  0.69779203  0.38636026  0.81844806    -0.17600
C747        C  0.68221929  0.40208222  0.84624589    -0.19800
C748        C  0.64688838  0.40787777  0.84648474     0.20500
C749        C  0.63094622  0.42333898  0.87436729    -0.32800
C750        C  0.59572585  0.42989812  0.87380606     0.01200
C751        C  0.57632969  0.42046001  0.84546364    -0.24200
C752        C  0.63795603  0.35222628  0.73655896    -0.28700
C753        C  0.67330581  0.34681112  0.73646486     0.06800
C754        C  0.69338678  0.35903902  0.76323407    -0.27400
H755        H  0.57157669  0.36783953  0.74228555     0.11600
H756        H  0.54477562  0.39818034  0.78963614     0.12700
H757        H  0.72511249  0.38211785  0.81882277     0.11800
H758        H  0.69780247  0.40969494  0.86756195     0.11000
H759        H  0.64593431  0.43086545  0.89615190     0.16400
H760        H  0.54907257  0.42526283  0.84514252     0.12300
H761        H  0.62263448  0.34310320  0.71559138     0.15200
H762        H  0.72072024  0.35470290  0.76304047     0.14900
C763        C  0.45643812  0.37712761  0.79805261    -0.17900
C764        C  0.43920776  0.36151352  0.77123954    -0.20100
C765        C  0.40348132  0.36269103  0.76954615     0.20500
C766        C  0.38486552  0.37982812  0.79502265    -0.03000
C767        C  0.40222595  0.39506056  0.82240494    -0.06100
C768        C  0.43819709  0.39382910  0.82377210     0.20800
C769        C  0.38362921  0.41152448  0.84835859     0.19000
C770        C  0.34792447  0.41336891  0.84619428    -0.17600
C771        C  0.33073944  0.39872516  0.81874536    -0.19800
C772        C  0.34894029  0.38169782  0.79317604     0.20500
C773        C  0.33189063  0.36639435  0.76588112    -0.32800
C774        C  0.35030773  0.34878960  0.74078587     0.01200
C775        C  0.38606790  0.34700296  0.74282352    -0.24200
C776        C  0.45532070  0.40945686  0.85074784    -0.28700
C777        C  0.43697204  0.42549983  0.87681497     0.06800
C778        C  0.40114273  0.42608445  0.87580319    -0.27400
H779        H  0.48403668  0.37596398  0.79878207     0.11600
H780        H  0.45384012  0.34856700  0.75177908     0.12700
H781        H  0.33328247  0.42620893  0.86570713     0.11800
H782        H  0.30317706  0.40051658  0.81763086     0.11000
H783        H  0.30429454  0.36760692  0.76449133     0.16400
H784        H  0.40042471  0.33371570  0.72335124     0.12300
H785        H  0.48296754  0.40892286  0.85168960     0.15200
H786        H  0.38705498  0.43877713  0.89583472     0.14900
C787        C  0.38446737  0.68065986  0.82669520    -0.17900
C788        C  0.40116547  0.66443475  0.85356108    -0.20100
C789        C  0.40732279  0.62877860  0.85276739     0.20500
C790        C  0.39592811  0.60915108  0.82494699    -0.03000
C791        C  0.37803691  0.62531941  0.79842757    -0.06100
C792        C  0.37283213  0.66133544  0.79904867     0.20800
C793        C  0.36566812  0.60548541  0.77115336     0.19000
C794        C  0.37180128  0.56985431  0.77034708    -0.17600
C795        C  0.39043612  0.55399933  0.79612985    -0.19800
C796        C  0.40266334  0.57341580  0.82345964     0.20500
C797        C  0.42164023  0.55777070  0.84924327    -0.32800
C798        C  0.43285129  0.57712055  0.87708259     0.01200
C799        C  0.42509285  0.61246010  0.87902994    -0.24200
C800        C  0.35623098  0.67735112  0.77192825    -0.28700
C801        C  0.34356729  0.65762519  0.74494820     0.06800
C802        C  0.34783781  0.62170622  0.74493363    -0.27400
H803        H  0.38052561  0.70830741  0.82760538     0.11600
H804        H  0.40974191  0.67986398  0.87472316     0.12700
H805        H  0.36255812  0.55431134  0.74954142     0.11800
H806        H  0.39523407  0.52651392  0.79472857     0.11000
H807        H  0.42723067  0.53040298  0.84799035     0.16400
H808        H  0.43379083  0.62739583  0.90051160     0.12300
H809        H  0.35285156  0.70511593  0.77189893     0.15200
H810        H  0.33842580  0.60659972  0.72386578     0.14900
loop_ 
_geom_bond_atom_site_label_1 
_geom_bond_atom_site_label_2 
_geom_bond_distance 
_geom_bond_site_symmetry_2 
_ccdc_geom_bond_type 
O1          Zr13   2.443       .  S
O1            C3   1.287       .  A
O2          Zr39   2.423       .  S
O2            C3   1.286       .  A
C3          C777   1.471       .  S
O4          Zr16   2.434   1_554  S
O4            C6   1.287       .  A
O5          Zr40   2.417       .  S
O5            C6   1.286       .  A
C6          C678   1.468       .  S
O7          Zr16   2.438       .  S
O7            C9   1.287       .  A
O8          Zr39   2.426       .  S
O8            C9   1.287       .  A
C9          C798   1.473       .  S
O10         Zr13   2.443   1_554  S
O10          C12   1.287       .  A
O11         Zr40   2.421       .  S
O11          C12   1.285       .  A
C12         C702   1.469       .  S
Zr13         O14   2.434       .  S
Zr13         O15   2.434       .  S
Zr13         O19   2.375       .  S
Zr13         O20   2.368   1_556  S
Zr13         O43   2.373   1_556  S
Zr13         O45   2.374       .  S
O14          H57   0.990   1_556  S
O15          H56   0.990       .  S
O15          H60   0.990       .  S
Zr16         O17   2.434       .  S
Zr16         O18   2.433       .  S
Zr16         O20   2.373   1_556  S
Zr16         O19   2.369       .  S
Zr16         O44   2.368       .  S
Zr16         O46   2.372   1_556  S
O17          H58   0.990   1_556  S
O17          H61   0.990       .  S
O18          H51   0.990       .  S
O19         Zr39   2.375       .  S
O20         Zr40   2.380       .  S
O20          H47   0.968       .  S
O21         Zr33   2.458   1_554  S
O21          C23   1.290       .  A
O22         Zr40   2.424       .  S
O22          C23   1.287       .  A
C23         C630   1.480       .  S
O24         Zr36   2.445       .  S
O24          C26   1.289       .  A
O25         Zr39   2.422       .  S
O25          C26   1.287       .  A
C26         C729   1.477       .  S
O27         Zr36   2.443   1_554  S
O27          C29   1.287       .  A
O28         Zr40   2.408       .  S
O28          C29   1.284       .  A
C29         C654   1.464       .  S
O30         Zr33   2.450       .  S
O30          C32   1.289       .  A
O31         Zr39   2.403       .  S
O31          C32   1.283       .  A
C32         C750   1.470       .  S
Zr33         O34   2.436       .  S
Zr33         O35   2.437       .  S
Zr33         O41   2.371   1_556  S
Zr33         O42   2.373       .  S
Zr33         O45   2.378       .  S
Zr33         O43   2.380   1_556  S
O34          H54   0.990   1_556  S
O34          H59   0.990       .  S
O35          H55   0.990       .  S
Zr36         O37   2.433       .  S
Zr36         O38   2.436       .  S
Zr36         O42   2.375       .  S
Zr36         O41   2.378   1_556  S
Zr36         O46   2.367   1_556  S
Zr36         O44   2.368       .  S
O37          H53   0.990       .  S
O38          H52   0.991   1_556  S
O38          H62   0.990       .  S
Zr39         O42   2.378       .  S
Zr39         O44   2.380       .  S
Zr39         O45   2.379       .  S
Zr40         O41   2.381       .  S
Zr40         O43   2.372       .  S
Zr40         O46   2.382       .  S
O41          H49   0.964       .  S
O44          H48   0.965       .  S
O45          H50   0.966       .  S
O63         Zr75   2.452   1_565  S
O63          C65   1.289       .  A
O64        Zr101   2.426       .  S
O64          C65   1.287       .  A
C65         C606   1.477       .  S
O66         Zr78   2.448   1_545  S
O66          C68   1.288       .  A
O67        Zr102   2.414       .  S
O67          C68   1.285       .  A
C68         C510   1.471       .  S
O69         Zr78   2.445       .  S
O69          C71   1.288       .  A
O70        Zr101   2.408       .  S
O70          C71   1.285       .  A
C71         C582   1.473       .  S
O72         Zr75   2.450       .  S
O72          C74   1.289       .  A
O73        Zr102   2.411       .  S
O73          C74   1.284       .  A
C74         C489   1.465       .  S
Zr75         O76   2.432       .  S
Zr75         O77   2.436   1_545  S
Zr75         O81   2.372   1_545  S
Zr75         O82   2.375       .  S
Zr75        O105   2.369       .  S
Zr75        O107   2.366   1_545  S
O76         H119   0.990       .  S
O77         H118   0.990       .  S
O77         H122   0.990   1_565  S
Zr78         O79   2.433       .  S
Zr78         O80   2.435   1_565  S
Zr78         O82   2.369   1_565  S
Zr78         O81   2.370       .  S
Zr78        O106   2.373       .  S
Zr78        O108   2.373   1_565  S
O79         H120   0.990   1_565  S
O79         H123   0.990   1_565  S
O80         H113   0.990   1_545  S
O81        Zr101   2.376       .  S
O82        Zr102   2.382       .  S
O82         H109   0.966       .  S
O83         Zr95   2.439       .  S
O83          C85   1.287       .  A
O84        Zr102   2.422       .  S
O84          C85   1.286       .  A
C85         C465   1.473       .  S
O86         Zr98   2.436   1_565  S
O86          C88   1.286       .  A
O87        Zr101   2.422       .  S
O87          C88   1.286       .  A
C88         C558   1.467       .  S
O89         Zr98   2.441       .  S
O89          C91   1.287       .  A
O90        Zr102   2.410       .  S
O90          C91   1.284       .  A
C91         C441   1.467       .  S
O92         Zr95   2.432   1_565  S
O92          C94   1.286       .  A
O93        Zr101   2.416       .  S
O93          C94   1.286       .  A
C94         C537   1.466       .  S
Zr95         O96   2.435       .  S
Zr95         O97   2.434       .  S
Zr95        O103   2.371       .  S
Zr95        O104   2.377   1_545  S
Zr95        O107   2.377   1_545  S
Zr95        O105   2.366       .  S
O96         H116   0.990       .  S
O96         H121   0.990   1_545  S
O97         H117   0.990   1_545  S
Zr98         O99   2.435       .  S
Zr98        O100   2.436   1_545  S
Zr98        O104   2.373   1_545  S
Zr98        O103   2.372       .  S
Zr98        O108   2.372       .  S
Zr98        O106   2.371   1_545  S
O99         H115   0.990       .  S
O100        H114   0.990   1_565  S
O100        H124   0.990   1_565  S
Zr101       O104   2.377       .  S
Zr101       O106   2.384       .  S
Zr101       O107   2.383       .  S
Zr102       O103   2.377       .  S
Zr102       O105   2.375       .  S
Zr102       O108   2.377       .  S
O103        H111   0.966       .  S
O106        H110   0.966       .  S
O107        H112   0.966       .  S
O125       Zr137   2.452   1_655  S
O125        C127   1.290       .  A
O126       Zr163   2.407       .  S
O126        C127   1.284       .  A
C127        C414   1.474       .  S
O128       Zr140   2.438       .  S
O128        C130   1.287       .  A
O129       Zr164   2.408       .  S
O129        C130   1.284       .  A
C130        C321   1.461       .  S
O131       Zr140   2.433   1_655  S
O131        C133   1.286       .  A
O132       Zr163   2.423       .  S
O132        C133   1.287       .  A
C133        C390   1.471       .  S
O134       Zr137   2.444       .  S
O134        C136   1.288       .  A
O135       Zr164   2.417       .  S
O135        C136   1.286       .  A
C136        C297   1.470       .  S
Zr137       O138   2.434       .  S
Zr137       O139   2.434       .  S
Zr137       O143   2.371   1_455  S
Zr137       O144   2.372       .  S
Zr137       O167   2.378       .  S
Zr137       O169   2.372   1_455  S
O138        H181   0.990       .  S
O139        H180   0.990       .  S
O139        H184   0.990       .  S
Zr140       O141   2.435       .  S
Zr140       O142   2.433       .  S
Zr140       O144   2.367       .  S
Zr140       O143   2.369   1_455  S
Zr140       O168   2.372   1_455  S
Zr140       O170   2.376       .  S
O141        H182   0.990       .  S
O141        H185   0.990       .  S
O142        H175   0.990       .  S
O143       Zr163   2.379       .  S
O144       Zr164   2.387       .  S
O144        H171   0.967       .  S
O145       Zr157   2.449       .  S
O145        C147   1.289       .  A
O146       Zr164   2.417       .  S
O146        C147   1.286       .  A
C147        C273   1.477       .  S
O148       Zr160   2.435   1_655  S
O148        C150   1.286       .  A
O149       Zr163   2.417       .  S
O149        C150   1.285       .  A
C150        C366   1.473       .  S
O151       Zr160   2.432       .  S
O151        C153   1.285       .  A
O152       Zr164   2.419       .  S
O152        C153   1.285       .  A
C153        C246   1.462       .  S
O154       Zr157   2.431   1_655  S
O154        C156   1.286       .  A
O155       Zr163   2.413       .  S
O155        C156   1.284       .  A
C156        C342   1.461       .  S
Zr157       O158   2.437       .  S
Zr157       O159   2.435       .  S
Zr157       O165   2.368       .  S
Zr157       O166   2.375   1_455  S
Zr157       O169   2.370   1_455  S
Zr157       O167   2.369       .  S
O158        H178   0.990       .  S
O158        H183   0.990       .  S
O159        H179   0.990       .  S
Zr160       O161   2.436       .  S
Zr160       O162   2.434       .  S
Zr160       O166   2.371   1_455  S
Zr160       O165   2.376       .  S
Zr160       O170   2.371       .  S
Zr160       O168   2.365   1_455  S
O161        H177   0.990   1_455  S
O162        H176   0.990       .  S
O162        H186   0.990       .  S
Zr163       O166   2.373       .  S
Zr163       O168   2.376       .  S
Zr163       O169   2.378       .  S
Zr164       O165   2.377       .  S
Zr164       O167   2.376       .  S
Zr164       O170   2.379       .  S
O165        H173   0.964       .  S
O168        H172   0.968       .  S
O169        H174   0.967       .  S
C187        C393   1.476       .  S
C187        N188   1.356       .  A
C187        N192   1.362       .  A
N188        C189   1.356       .  A
C189        C513   1.478       .  S
C189        N190   1.359       .  A
N190        C191   1.362       .  A
C191        C633   1.484       .  S
C191        N192   1.361       .  A
C193        C417   1.466       .  S
C193        N194   1.355       .  A
C193        N198   1.356       .  A
N194        C195   1.356       .  A
C195        C657   1.468       .  S
C195        N196   1.357       .  A
N196        C197   1.357       .  A
C197        C585   1.465       .  S
C197        N198   1.358       .  A
C199        C753   1.464       .  S
C199        N200   1.352       .  A
C199        N204   1.356       .  A
N200        C201   1.353       .  A
C201        C369   1.463       .  S
C201        N202   1.359       .  A
N202        C203   1.360       .  A
C203        C438   1.474       .  S
C203        N204   1.359       .  A
C205        C609   1.470       .  S
C205        N206   1.355       .  A
C205        N210   1.358       .  A
N206        C207   1.356       .  A
C207        C294   1.467       .  S
C207        N208   1.358       .  A
N208        C209   1.359       .  A
C209        C681   1.471       .  S
C209        N210   1.358       .  A
C211        C801   1.469       .  S
C211        N212   1.358       .  A
C211        N216   1.353       .  A
N212        C213   1.359       .  A
C213        C270   1.472       .  S
C213        N214   1.359       .  A
N214        C215   1.358       .  A
C215        C534   1.464       .  S
C215        N216   1.354       .  A
C217        C774   1.474       .  S
C217        N218   1.359       .  A
C217        N222   1.355       .  A
N218        C219   1.360       .  A
C219        C249   1.473       .  S
C219        N220   1.358       .  A
N220        C221   1.355       .  A
C221        C462   1.463       .  S
C221        N222   1.353       .  A
C223        C726   1.473       .  S
C223        N224   1.358       .  A
C223        N228   1.356       .  A
N224        C225   1.360       .  A
C225        C345   1.478       .  S
C225        N226   1.360       .  A
N226        C227   1.359       .  A
C227        C561   1.477       .  S
C227        N228   1.358       .  A
C229        C486   1.475       .  S
C229        N230   1.356       .  A
C229        N234   1.353       .  A
N230        C231   1.360       .  A
C231        C705   1.479       .  S
C231        N232   1.363       .  A
N232        C233   1.361       .  A
C233        C318   1.475       .  S
C233        N234   1.354       .  A
C235        C236   1.398       .  A
C235        C240   1.403       .  A
C235        H251   1.084       .  S
C236        C237   1.403       .  A
C236        H252   1.084       .  S
C237        C247   1.401       .  A
C237        C238   1.413       .  A
C238        C244   1.412       .  A
C238        C239   1.409       .  A
C239        C241   1.412       .  A
C239        C240   1.411       .  A
C240        C248   1.400       .  A
C241        C250   1.400       .  A
C241        C242   1.403       .  A
C242        C243   1.397       .  A
C242        H253   1.084       .  S
C243        C244   1.402       .  A
C243        H254   1.083       .  S
C244        C245   1.399       .  A
C245        C246   1.402       .  A
C245        H255   1.084       .  S
C246        C247   1.402       .  A
C247        H256   1.085       .  S
C248        C249   1.405       .  A
C248        H257   1.084       .  S
C249        C250   1.405       .  A
C250        H258   1.084       .  S
C259        C260   1.398       .  A
C259        C264   1.403       .  A
C259        H275   1.083       .  S
C260        C261   1.403       .  A
C260        H276   1.084       .  S
C261        C271   1.401       .  A
C261        C262   1.411       .  A
C262        C268   1.412       .  A
C262        C263   1.412       .  A
C263        C265   1.411       .  A
C263        C264   1.412       .  A
C264        C272   1.403       .  A
C265        C274   1.404       .  A
C265        C266   1.404       .  A
C266        C267   1.400       .  A
C266        H277   1.083       .  S
C267        C268   1.404       .  A
C267        H278   1.083       .  S
C268        C269   1.404       .  A
C269        C270   1.405       .  A
C269        H279   1.084       .  S
C270        C271   1.404       .  A
C271        H280   1.085       .  S
C272        C273   1.406       .  A
C272        H281   1.084       .  S
C273        C274   1.406       .  A
C274        H282   1.084       .  S
C283        C284   1.399       .  A
C283        C288   1.404       .  A
C283        H299   1.083       .  S
C284        C285   1.403       .  A
C284        H300   1.084       .  S
C285        C295   1.403       .  A
C285        C286   1.413       .  A
C286        C292   1.411       .  A
C286        C287   1.409       .  A
C287        C289   1.412       .  A
C287        C288   1.412       .  A
C288        C296   1.403       .  A
C289        C298   1.400       .  A
C289        C290   1.403       .  A
C290        C291   1.397       .  A
C290        H301   1.084       .  S
C291        C292   1.403       .  A
C291        H302   1.084       .  S
C292        C293   1.399       .  A
C293        C294   1.403       .  A
C293        H303   1.085       .  S
C294        C295   1.403       .  A
C295        H304   1.084       .  S
C296        C297   1.405       .  A
C296        H305   1.084       .  S
C297        C298   1.404       .  A
C298        H306   1.085       .  S
C307        C308   1.397       .  A
C307        C312   1.402       .  A
C307        H323   1.084       .  S
C308        C309   1.404       .  A
C308        H324   1.084       .  S
C309        C319   1.398       .  A
C309        C310   1.410       .  A
C310        C316   1.413       .  A
C310        C311   1.409       .  A
C311        C313   1.412       .  A
C311        C312   1.413       .  A
C312        C320   1.399       .  A
C313        C322   1.401       .  A
C313        C314   1.403       .  A
C314        C315   1.399       .  A
C314        H325   1.084       .  S
C315        C316   1.403       .  A
C315        H326   1.083       .  S
C316        C317   1.404       .  A
C317        C318   1.404       .  A
C317        H327   1.084       .  S
C318        C319   1.407       .  A
C319        H328   1.084       .  S
C320        C321   1.402       .  A
C320        H329   1.085       .  S
C321        C322   1.402       .  A
C322        H330   1.085       .  S
C331        C332   1.398       .  A
C331        C336   1.404       .  A
C331        H347   1.083       .  S
C332        C333   1.402       .  A
C332        H348   1.083       .  S
C333        C343   1.399       .  A
C333        C334   1.412       .  A
C334        C340   1.413       .  A
C334        C335   1.410       .  A
C335        C337   1.411       .  A
C335        C336   1.412       .  A
C336        C344   1.402       .  A
C337        C346   1.402       .  A
C337        C338   1.404       .  A
C338        C339   1.398       .  A
C338        H349   1.083       .  S
C339        C340   1.402       .  A
C339        H350   1.084       .  S
C340        C341   1.400       .  A
C341        C342   1.402       .  A
C341        H351   1.085       .  S
C342        C343   1.402       .  A
C343        H352   1.084       .  S
C344        C345   1.406       .  A
C344        H353   1.084       .  S
C345        C346   1.406       .  A
C346        H354   1.084       .  S
C355        C356   1.399       .  A
C355        C360   1.402       .  A
C355        H371   1.084       .  S
C356        C357   1.404       .  A
C356        H372   1.083       .  S
C357        C367   1.401       .  A
C357        C358   1.411       .  A
C358        C364   1.412       .  A
C358        C359   1.408       .  A
C359        C361   1.410       .  A
C359        C360   1.414       .  A
C360        C368   1.403       .  A
C361        C370   1.396       .  A
C361        C362   1.403       .  A
C362        C363   1.396       .  A
C362        H373   1.084       .  S
C363        C364   1.402       .  A
C363        H374   1.084       .  S
C364        C365   1.399       .  A
C365        C366   1.404       .  A
C365        H375   1.085       .  S
C366        C367   1.406       .  A
C367        H376   1.084       .  S
C368        C369   1.401       .  A
C368        H377   1.084       .  S
C369        C370   1.403       .  A
C370        H378   1.085       .  S
C379        C380   1.399       .  A
C379        C384   1.405       .  A
C379        H395   1.084       .  S
C380        C381   1.403       .  A
C380        H396   1.084       .  S
C381        C391   1.402       .  A
C381        C382   1.412       .  A
C382        C388   1.412       .  A
C382        C383   1.411       .  A
C383        C385   1.412       .  A
C383        C384   1.411       .  A
C384        C392   1.404       .  A
C385        C394   1.402       .  A
C385        C386   1.403       .  A
C386        C387   1.398       .  A
C386        H397   1.083       .  S
C387        C388   1.403       .  A
C387        H398   1.083       .  S
C388        C389   1.402       .  A
C389        C390   1.405       .  A
C389        H399   1.085       .  S
C390        C391   1.405       .  A
C391        H400   1.085       .  S
C392        C393   1.408       .  A
C392        H401   1.084       .  S
C393        C394   1.403       .  A
C394        H402   1.084       .  S
C403        C404   1.399       .  A
C403        C408   1.403       .  A
C403        H419   1.084       .  S
C404        C405   1.404       .  A
C404        H420   1.083       .  S
C405        C415   1.405       .  A
C405        C406   1.413       .  A
C406        C412   1.410       .  A
C406        C407   1.409       .  A
C407        C409   1.413       .  A
C407        C408   1.411       .  A
C408        C416   1.400       .  A
C409        C418   1.400       .  A
C409        C410   1.402       .  A
C410        C411   1.397       .  A
C410        H421   1.084       .  S
C411        C412   1.403       .  A
C411        H422   1.083       .  S
C412        C413   1.398       .  A
C413        C414   1.405       .  A
C413        H423   1.084       .  S
C414        C415   1.406       .  A
C415        H424   1.084       .  S
C416        C417   1.404       .  A
C416        H425   1.085       .  S
C417        C418   1.402       .  A
C418        H426   1.085       .  S
C427        C428   1.400       .  A
C427        C432   1.403       .  A
C427        H443   1.084       .  S
C428        C429   1.404       .  A
C428        H444   1.083       .  S
C429        C439   1.404       .  A
C429        C430   1.412       .  A
C430        C436   1.411       .  A
C430        C431   1.409       .  A
C431        C433   1.411       .  A
C431        C432   1.412       .  A
C432        C440   1.403       .  A
C433        C442   1.397       .  A
C433        C434   1.402       .  A
C434        C435   1.396       .  A
C434        H445   1.083       .  S
C435        C436   1.403       .  A
C435        H446   1.084       .  S
C436        C437   1.399       .  A
C437        C438   1.405       .  A
C437        H447   1.084       .  S
C438        C439   1.406       .  A
C439        H448   1.084       .  S
C440        C441   1.404       .  A
C440        H449   1.085       .  S
C441        C442   1.403       .  A
C442        H450   1.085       .  S
C451        C452   1.398       .  A
C451        C456   1.403       .  A
C451        H467   1.083       .  S
C452        C453   1.402       .  A
C452        H468   1.084       .  S
C453        C463   1.400       .  A
C453        C454   1.413       .  A
C454        C460   1.411       .  A
C454        C455   1.409       .  A
C455        C457   1.412       .  A
C455        C456   1.412       .  A
C456        C464   1.402       .  A
C457        C466   1.401       .  A
C457        C458   1.403       .  A
C458        C459   1.397       .  A
C458        H469   1.083       .  S
C459        C460   1.403       .  A
C459        H470   1.084       .  S
C460        C461   1.398       .  A
C461        C462   1.403       .  A
C461        H471   1.085       .  S
C462        C463   1.401       .  A
C463        H472   1.085       .  S
C464        C465   1.405       .  A
C464        H473   1.084       .  S
C465        C466   1.405       .  A
C466        H474   1.084       .  S
C475        C476   1.399       .  A
C475        C480   1.403       .  A
C475        H491   1.084       .  S
C476        C477   1.404       .  A
C476        H492   1.084       .  S
C477        C487   1.399       .  A
C477        C478   1.410       .  A
C478        C484   1.413       .  A
C478        C479   1.409       .  A
C479        C481   1.411       .  A
C479        C480   1.414       .  A
C480        C488   1.405       .  A
C481        C490   1.398       .  A
C481        C482   1.403       .  A
C482        C483   1.397       .  A
C482        H493   1.084       .  S
C483        C484   1.402       .  A
C483        H494   1.084       .  S
C484        C485   1.402       .  A
C485        C486   1.405       .  A
C485        H495   1.084       .  S
C486        C487   1.407       .  A
C487        H496   1.084       .  S
C488        C489   1.403       .  A
C488        H497   1.084       .  S
C489        C490   1.402       .  A
C490        H498   1.085       .  S
C499        C500   1.397       .  A
C499        C504   1.403       .  A
C499        H515   1.084       .  S
C500        C501   1.402       .  A
C500        H516   1.084       .  S
C501        C511   1.399       .  A
C501        C502   1.412       .  A
C502        C508   1.412       .  A
C502        C503   1.411       .  A
C503        C505   1.412       .  A
C503        C504   1.411       .  A
C504        C512   1.400       .  A
C505        C514   1.406       .  A
C505        C506   1.404       .  A
C506        C507   1.401       .  A
C506        H517   1.083       .  S
C507        C508   1.404       .  A
C507        H518   1.084       .  S
C508        C509   1.405       .  A
C509        C510   1.405       .  A
C509        H519   1.084       .  S
C510        C511   1.403       .  A
C511        H520   1.085       .  S
C512        C513   1.405       .  A
C512        H521   1.084       .  S
C513        C514   1.407       .  A
C514        H522   1.084       .  S
C523        C524   1.398       .  A
C523        C528   1.403       .  A
C523        H539   1.084       .  S
C524        C525   1.402       .  A
C524        H540   1.084       .  S
C525        C535   1.401       .  A
C525        C526   1.413       .  A
C526        C532   1.411       .  A
C526        C527   1.407       .  A
C527        C529   1.412       .  A
C527        C528   1.412       .  A
C528        C536   1.400       .  A
C529        C538   1.398       .  A
C529        C530   1.402       .  A
C530        C531   1.396       .  A
C530        H541   1.084       .  S
C531        C532   1.403       .  A
C531        H542   1.084       .  S
C532        C533   1.398       .  A
C533        C534   1.404       .  A
C533        H543   1.085       .  S
C534        C535   1.401       .  A
C535        H544   1.084       .  S
C536        C537   1.405       .  A
C536        H545   1.085       .  S
C537        C538   1.402       .  A
C538        H546   1.084       .  S
C547        C548   1.400       .  A
C547        C552   1.404       .  A
C547        H563   1.083       .  S
C548        C549   1.403       .  A
C548        H564   1.084       .  S
C549        C559   1.402       .  A
C549        C550   1.412       .  A
C550        C556   1.413       .  A
C550        C551   1.410       .  A
C551        C553   1.411       .  A
C551        C552   1.413       .  A
C552        C560   1.405       .  A
C553        C562   1.400       .  A
C553        C554   1.403       .  A
C554        C555   1.398       .  A
C554        H565   1.084       .  S
C555        C556   1.402       .  A
C555        H566   1.084       .  S
C556        C557   1.401       .  A
C557        C558   1.402       .  A
C557        H567   1.084       .  S
C558        C559   1.404       .  A
C559        H568   1.085       .  S
C560        C561   1.406       .  A
C560        H569   1.084       .  S
C561        C562   1.406       .  A
C562        H570   1.084       .  S
C571        C572   1.400       .  A
C571        C576   1.404       .  A
C571        H587   1.084       .  S
C572        C573   1.404       .  A
C572        H588   1.084       .  S
C573        C583   1.404       .  A
C573        C574   1.412       .  A
C574        C580   1.411       .  A
C574        C575   1.409       .  A
C575        C577   1.412       .  A
C575        C576   1.412       .  A
C576        C584   1.403       .  A
C577        C586   1.398       .  A
C577        C578   1.402       .  A
C578        C579   1.396       .  A
C578        H589   1.084       .  S
C579        C580   1.402       .  A
C579        H590   1.084       .  S
C580        C581   1.397       .  A
C581        C582   1.404       .  A
C581        H591   1.085       .  S
C582        C583   1.407       .  A
C583        H592   1.084       .  S
C584        C585   1.404       .  A
C584        H593   1.084       .  S
C585        C586   1.401       .  A
C586        H594   1.085       .  S
C595        C596   1.400       .  A
C595        C600   1.403       .  A
C595        H611   1.084       .  S
C596        C597   1.404       .  A
C596        H612   1.083       .  S
C597        C607   1.405       .  A
C597        C598   1.412       .  A
C598        C604   1.412       .  A
C598        C599   1.411       .  A
C599        C601   1.412       .  A
C599        C600   1.412       .  A
C600        C608   1.403       .  A
C601        C610   1.401       .  A
C601        C602   1.402       .  A
C602        C603   1.398       .  A
C602        H613   1.084       .  S
C603        C604   1.404       .  A
C603        H614   1.084       .  S
C604        C605   1.403       .  A
C605        C606   1.405       .  A
C605        H615   1.085       .  S
C606        C607   1.406       .  A
C607        H616   1.084       .  S
C608        C609   1.405       .  A
C608        H617   1.085       .  S
C609        C610   1.403       .  A
C610        H618   1.085       .  S
C619        C620   1.404       .  A
C619        C624   1.406       .  A
C619        H635   1.083       .  S
C620        C621   1.405       .  A
C620        H636   1.083       .  S
C621        C631   1.411       .  A
C621        C622   1.412       .  A
C622        C628   1.411       .  A
C622        C623   1.415       .  A
C623        C625   1.411       .  A
C623        C624   1.412       .  A
C624        C632   1.411       .  A
C625        C634   1.401       .  A
C625        C626   1.402       .  A
C626        C627   1.397       .  A
C626        H637   1.084       .  S
C627        C628   1.401       .  A
C627        H638   1.080       .  S
C628        C629   1.401       .  A
C629        C630   1.404       .  A
C629        H639   1.084       .  S
C630        C631   1.408       .  A
C631        H640   1.084       .  S
C632        C633   1.410       .  A
C632        H641   1.084       .  S
C633        C634   1.406       .  A
C634        H642   1.084       .  S
C643        C644   1.396       .  A
C643        C648   1.403       .  A
C643        H659   1.084       .  S
C644        C645   1.402       .  A
C644        H660   1.084       .  S
C645        C655   1.397       .  A
C645        C646   1.412       .  A
C646        C652   1.413       .  A
C646        C647   1.408       .  A
C647        C649   1.412       .  A
C647        C648   1.411       .  A
C648        C656   1.398       .  A
C649        C658   1.401       .  A
C649        C650   1.403       .  A
C650        C651   1.399       .  A
C650        H661   1.084       .  S
C651        C652   1.403       .  A
C651        H662   1.083       .  S
C652        C653   1.402       .  A
C653        C654   1.403       .  A
C653        H663   1.084       .  S
C654        C655   1.402       .  A
C655        H664   1.085       .  S
C656        C657   1.404       .  A
C656        H665   1.085       .  S
C657        C658   1.404       .  A
C658        H666   1.084       .  S
C667        C668   1.398       .  A
C667        C672   1.403       .  A
C667        H683   1.083       .  S
C668        C669   1.402       .  A
C668        H684   1.084       .  S
C669        C679   1.399       .  A
C669        C670   1.411       .  A
C670        C676   1.413       .  A
C670        C671   1.410       .  A
C671        C673   1.411       .  A
C671        C672   1.412       .  A
C672        C680   1.402       .  A
C673        C682   1.402       .  A
C673        C674   1.404       .  A
C674        C675   1.399       .  A
C674        H685   1.084       .  S
C675        C676   1.403       .  A
C675        H686   1.084       .  S
C676        C677   1.403       .  A
C677        C678   1.405       .  A
C677        H687   1.085       .  S
C678        C679   1.403       .  A
C679        H688   1.085       .  S
C680        C681   1.404       .  A
C680        H689   1.084       .  S
C681        C682   1.404       .  A
C682        H690   1.084       .  S
C691        C692   1.400       .  A
C691        C696   1.404       .  A
C691        H707   1.084       .  S
C692        C693   1.404       .  A
C692        H708   1.083       .  S
C693        C703   1.405       .  A
C693        C694   1.412       .  A
C694        C700   1.412       .  A
C694        C695   1.411       .  A
C695        C697   1.411       .  A
C695        C696   1.412       .  A
C696        C704   1.405       .  A
C697        C706   1.400       .  A
C697        C698   1.403       .  A
C698        C699   1.397       .  A
C698        H709   1.084       .  S
C699        C700   1.402       .  A
C699        H710   1.080       .  S
C700        C701   1.401       .  A
C701        C702   1.402       .  A
C701        H711   1.084       .  S
C702        C703   1.405       .  A
C703        H712   1.085       .  S
C704        C705   1.407       .  A
C704        H713   1.084       .  S
C705        C706   1.407       .  A
C706        H714   1.084       .  S
C715        C716   1.400       .  A
C715        C720   1.404       .  A
C715        H731   1.084       .  S
C716        C717   1.404       .  A
C716        H732   1.084       .  S
C717        C727   1.403       .  A
C717        C718   1.412       .  A
C718        C724   1.412       .  A
C718        C719   1.412       .  A
C719        C721   1.411       .  A
C719        C720   1.412       .  A
C720        C728   1.404       .  A
C721        C730   1.402       .  A
C721        C722   1.403       .  A
C722        C723   1.399       .  A
C722        H733   1.084       .  S
C723        C724   1.403       .  A
C723        H734   1.084       .  S
C724        C725   1.403       .  A
C725        C726   1.404       .  A
C725        H735   1.084       .  S
C726        C727   1.405       .  A
C727        H736   1.084       .  S
C728        C729   1.406       .  A
C728        H737   1.084       .  S
C729        C730   1.406       .  A
C730        H738   1.085       .  S
C739        C740   1.396       .  A
C739        C744   1.402       .  A
C739        H755   1.084       .  S
C740        C741   1.403       .  A
C740        H756   1.083       .  S
C741        C751   1.396       .  A
C741        C742   1.410       .  A
C742        C748   1.413       .  A
C742        C743   1.408       .  A
C743        C745   1.411       .  A
C743        C744   1.413       .  A
C744        C752   1.399       .  A
C745        C754   1.399       .  A
C745        C746   1.403       .  A
C746        C747   1.398       .  A
C746        H757   1.084       .  S
C747        C748   1.403       .  A
C747        H758   1.083       .  S
C748        C749   1.403       .  A
C749        C750   1.404       .  A
C749        H759   1.084       .  S
C750        C751   1.405       .  A
C751        H760   1.085       .  S
C752        C753   1.402       .  A
C752        H761   1.085       .  S
C753        C754   1.404       .  A
C754        H762   1.085       .  S
C763        C764   1.397       .  A
C763        C768   1.403       .  A
C763        H779   1.083       .  S
C764        C765   1.403       .  A
C764        H780   1.084       .  S
C765        C775   1.399       .  A
C765        C766   1.411       .  A
C766        C772   1.412       .  A
C766        C767   1.411       .  A
C767        C769   1.412       .  A
C767        C768   1.412       .  A
C768        C776   1.400       .  A
C769        C778   1.405       .  A
C769        C770   1.404       .  A
C770        C771   1.400       .  A
C770        H781   1.083       .  S
C771        C772   1.403       .  A
C771        H782   1.084       .  S
C772        C773   1.403       .  A
C773        C774   1.405       .  A
C773        H783   1.084       .  S
C774        C775   1.406       .  A
C775        H784   1.085       .  S
C776        C777   1.403       .  A
C776        H785   1.085       .  S
C777        C778   1.405       .  A
C778        H786   1.084       .  S
C787        C788   1.399       .  A
C787        C792   1.403       .  A
C787        H803   1.084       .  S
C788        C789   1.404       .  A
C788        H804   1.084       .  S
C789        C799   1.403       .  A
C789        C790   1.412       .  A
C790        C796   1.412       .  A
C790        C791   1.410       .  A
C791        C793   1.412       .  A
C791        C792   1.411       .  A
C792        C800   1.401       .  A
C793        C802   1.401       .  A
C793        C794   1.403       .  A
C794        C795   1.398       .  A
C794        H805   1.084       .  S
C795        C796   1.403       .  A
C795        H806   1.084       .  S
C796        C797   1.402       .  A
C797        C798   1.405       .  A
C797        H807   1.085       .  S
C798        C799   1.406       .  A
C799        H808   1.084       .  S
C800        C801   1.405       .  A
C800        H809   1.085       .  S
C801        C802   1.403       .  A
C802        H810   1.084       .  S
