geometry optimzed in LAMMPS
_audit_creation_date              2020-12-01 
_audit_creation_method            'lammps2cif' 
_symmetry_space_group_name_H-M    'P1' 
_symmetry_Int_Tables_number       1 
_symmetry_cell_setting            triclinic 
loop_ 
_symmetry_equiv_pos_as_xyz 
  x,y,z 
_cell_length_a                    29.77989823 
_cell_length_b                    29.503955803339828 
_cell_length_c                    38.99237136483298 
_cell_angle_alpha                 95.26058831310628 
_cell_angle_beta                  88.43602123424367 
_cell_angle_gamma                 120.98619015446425 
loop_ 
_atom_site_label 
_atom_site_type_symbol 
_atom_site_fract_x 
_atom_site_fract_y 
_atom_site_fract_z 
_atom_site_charge 
C1          C  0.61881710  0.29302279  0.95148819     0.02800
C2          C  0.64602870  0.34750669  0.94655296    -0.13400
C3          C  0.70115489  0.37704680  0.94674886     0.00300
C4          C  0.72890222  0.35137951  0.95172705    -0.11900
C5          C  0.70249293  0.29690425  0.95612374     0.02800
C6          C  0.64749813  0.26821260  0.95618008    -0.11300
H7          H  0.62437863  0.36716067  0.94314896     0.08400
H8          H  0.77131869  0.37377822  0.95156899     0.05900
H9          H  0.62683463  0.22586299  0.95843744     0.05800
C10         C  0.59060612  0.28488542  0.44332097     0.02800
C11         C  0.61554729  0.34018595  0.44298427    -0.13400
C12         C  0.67002027  0.37164661  0.44003270     0.00300
C13         C  0.69989908  0.34702922  0.43746930    -0.11900
C14         C  0.67586747  0.29167076  0.43805499     0.02800
C15         C  0.62111777  0.26092082  0.44127145    -0.11300
H16         H  0.59222007  0.35881541  0.44455400     0.08400
H17         H  0.74207885  0.37110457  0.43562785     0.05900
H18         H  0.60206714  0.21815650  0.44079608     0.05800
C19         C  0.38576005  0.69555616  0.77407819     0.02800
C20         C  0.35578137  0.64040025  0.77703922    -0.13400
C21         C  0.30063681  0.61364742  0.77785698     0.00300
C22         C  0.27570946  0.64287829  0.77586000    -0.11900
C23         C  0.30458111  0.69772609  0.77267388     0.02800
C24         C  0.35954411  0.72362403  0.77170643    -0.11300
H25         H  0.37535046  0.61831397  0.77895434     0.08400
H26         H  0.23352876  0.62305846  0.77791454     0.05900
H27         H  0.38193346  0.76567740  0.76845478     0.05800
C28         C  0.37857778  0.68213957  0.28912578     0.02800
C29         C  0.35411311  0.71185939  0.28709777    -0.13400
C30         C  0.29903219  0.68699835  0.28666087     0.00300
C31         C  0.26864752  0.63152241  0.28795242    -0.11900
C32         C  0.29250713  0.60125620  0.28981502     0.02800
C33         C  0.34736161  0.62694739  0.29023989    -0.11300
H34         H  0.37806595  0.75461595  0.28724165     0.08400
H35         H  0.22629891  0.61162010  0.28701273     0.05900
H36         H  0.36594540  0.60385229  0.29192936     0.05800
O37         O  0.10292493  0.00043303  0.82934875    -0.80500
O38         O  0.89734185  0.92988439  0.83168747    -0.80500
O39         O  0.01036756  0.89265820  0.89987992    -0.80500
O40         O  0.98177088  0.97854119  0.79601332    -0.80400
O41         O  0.94159756  0.88137591  0.87075239    -0.80600
O42         O  0.06168571  0.04547282  0.79425987    -0.80500
O43         O  0.90565244  0.00207087  0.81194296    -0.80500
O44         O  0.02796399  0.92848580  0.83613242    -0.80500
C45         C  0.07273928  0.95071503  0.82308899     1.09200
C46         C  0.87775211  0.95257014  0.81554476     1.09100
C47         C  0.96418230  0.86210104  0.88746704     1.09200
C48         C  0.02233483  0.00537096  0.77908613     1.09100
O49         O  0.07614391  0.11797107  0.85400948    -0.80500
O50         O  0.94482012  0.95042707  0.93058572    -0.80600
O51         O  0.10207865  0.99168325  0.89263706    -0.80500
O52         O  0.95821875  0.06251446  0.87122356    -0.80500
O53         O  0.90371379  0.99293570  0.89559377    -0.80500
O54         O  0.11845304  0.07243426  0.88975175    -0.80500
O55         O  0.01179760  0.08931980  0.81643839    -0.80400
O56         O  0.02852386  0.98763762  0.93135503    -0.80500
Co57       Co  0.08472832  0.05625535  0.84382119     1.51500
Co58       Co  0.93245492  0.94655457  0.87993296     1.51700
Co59       Co  0.02433748  0.95734411  0.88356140     1.51600
Co60       Co  0.96820634  0.01754888  0.83531298     1.51500
O61         O  0.01317976  0.01049464  0.86663375    -1.42400
C62         C  0.05155070  0.12782919  0.83286725     1.09100
C63         C  0.98727766  0.97322937  0.94751905     1.09200
C64         C  0.13215265  0.04147773  0.89934102     1.09200
C65         C  0.92293414  0.04139776  0.89245928     1.09100
O66         O  0.08805539  0.99268938  0.32969299    -0.80500
O67         O  0.87236164  0.94113576  0.37718609    -0.80500
O68         O  0.93594701  0.86795021  0.37345530    -0.80500
O69         O  0.95059187  0.01706683  0.28975534    -0.80400
O70         O  0.90738664  0.89651694  0.41792174    -0.80600
O71         O  0.01344403  0.99877282  0.29355477    -0.80500
O72         O  0.90191011  0.92953348  0.32634210    -0.80500
O73         O  0.01991702  0.91435201  0.33222284    -0.80500
C74         C  0.06602827  0.94306622  0.32241396     1.09200
C75         C  0.86416235  0.91806789  0.34667848     1.09100
C76         C  0.90392834  0.85854003  0.39745566     1.09200
C77         C  0.98238209  0.00582140  0.27493242     1.09100
O78         O  0.09751334  0.08860025  0.32271098    -0.80500
O79         O  0.99300285  0.00056550  0.44344630    -0.80600
O80         O  0.08414620  0.98144989  0.39301451    -0.80500
O81         O  0.91999152  0.02998250  0.35366628    -0.80500
O82         O  0.95418386  0.04771071  0.40521434    -0.80500
O83         O  0.08676710  0.05689555  0.38791066    -0.80500
O84         O  0.02302762  0.08280311  0.33913270    -0.80400
O85         O  0.00143612  0.93065480  0.43363819    -0.80500
Co86       Co  0.04686116  0.02792158  0.34384609     1.51500
Co87       Co  0.93579607  0.97329820  0.40896420     1.51700
Co88       Co  0.00854403  0.92568510  0.38165947     1.51600
Co89       Co  0.96400081  0.00185181  0.33299924     1.51500
O90         O  0.98643377  0.97748058  0.37153148    -1.42400
C91         C  0.07089827  0.11070440  0.32911752     1.09100
C92         C  0.00448815  0.96849079  0.45411903     1.09200
C93         C  0.10628216  0.03173335  0.39950919     1.09200
C94         C  0.92916557  0.05534312  0.38306378     1.09100
C95         C  0.02322420  0.99321312  0.74135491    -0.03700
C96         C  0.97717752  0.95602284  0.72253183    -0.09500
C97         C  0.97773403  0.94848173  0.68650369    -0.17100
C98         C  0.02431411  0.97775047  0.66884922     0.25000
C99         C  0.07049583  0.01375666  0.68750841    -0.18800
C100        C  0.07001387  0.02144043  0.72342072    -0.07700
C101        C  0.02453709  0.97299408  0.63160696    -0.14100
C102        C  0.02518965  0.97186824  0.60050687    -0.13900
C103        C  0.02478896  0.97291025  0.56350670     0.24900
C104        C  0.02149662  0.93092725  0.54151067    -0.19300
C105        C  0.01732963  0.93052583  0.50572012    -0.07700
C106        C  0.01611277  0.97204813  0.49144277    -0.03800
C107        C  0.02136523  0.01494147  0.51372735    -0.09100
C108        C  0.02566184  0.01531812  0.54941446    -0.16800
H109        H  0.94049760  0.93384812  0.73553942     0.11400
H110        H  0.94165134  0.92059456  0.67239124     0.10700
H111        H  0.10677447  0.03671992  0.67423389     0.10600
H112        H  0.10617296  0.05027706  0.73709753     0.11100
H113        H  0.02089800  0.89789720  0.55204258     0.11200
H114        H  0.01320666  0.89684334  0.48934986     0.11200
H115        H  0.02071809  0.04761736  0.50365909     0.11300
H116        H  0.02839445  0.04815769  0.56607969     0.10100
C117        C  0.98804420  0.98059775  0.98573577    -0.03700
C118        C  0.03566070  0.00540406  0.00468466    -0.09500
C119        C  0.03601548  0.00948564  0.04078045    -0.17100
C120        C  0.98886128  0.98884512  0.05848952     0.25000
C121        C  0.94135900  0.96483029  0.03982978    -0.18800
C122        C  0.94090479  0.96076917  0.00375540    -0.07700
C123        C  0.98907169  0.99150871  0.09571645    -0.14100
C124        C  0.98844880  0.99308111  0.12683747    -0.13900
C125        C  0.98647807  0.99488385  0.16402054     0.24900
C126        C  0.94707637  0.99985334  0.18110646    -0.19300
C127        C  0.94533681  0.00248677  0.21709447    -0.07700
C128        C  0.98296420  0.00004041  0.23669062    -0.03800
C129        C  0.02214076  0.99446314  0.21933982    -0.09100
C130        C  0.02389357  0.99198658  0.18325294    -0.16800
H131        H  0.07261159  0.02104360  0.99161582     0.11400
H132        H  0.07305751  0.02824224  0.05486355     0.10700
H133        H  0.90458059  0.94873827  0.05316337     0.10600
H134        H  0.90358449  0.94139080  0.98997782     0.11100
H135        H  0.91783922  0.00207047  0.16661221     0.11200
H136        H  0.91466785  0.00683654  0.22958415     0.11200
H137        H  0.05183962  0.99279886  0.23365214     0.11300
H138        H  0.05462507  0.98815442  0.17037643     0.10100
C139        C  0.09463693  0.16828954  0.32612159    -0.03700
C140        C  0.14727502  0.19950180  0.31683965    -0.09500
C141        C  0.16904306  0.25349557  0.31289714    -0.17100
C142        C  0.13857353  0.27704724  0.31812545     0.25000
C143        C  0.08633166  0.24643930  0.32773306    -0.18800
C144        C  0.06448076  0.19244054  0.33173933    -0.07700
C145        C  0.16077447  0.33235395  0.31305117    -0.14100
C146        C  0.18051639  0.37860140  0.30821416    -0.13900
C147        C  0.20625937  0.43390509  0.30209890     0.24900
C148        C  0.19153415  0.46747538  0.31995822    -0.19300
C149        C  0.21848166  0.52169156  0.31518115    -0.07700
C150        C  0.26070876  0.54304431  0.29258054    -0.03800
C151        C  0.27433414  0.50871605  0.27414046    -0.09100
C152        C  0.24730286  0.45459043  0.27888481    -0.16800
H153        H  0.17154022  0.18214482  0.31237147     0.11400
H154        H  0.20953831  0.27677964  0.30548683     0.10700
H155        H  0.06235752  0.26419817  0.33186390     0.10600
H156        H  0.02383646  0.16951823  0.33888378     0.11100
H157        H  0.15986412  0.45194483  0.33802696     0.11200
H158        H  0.20745292  0.54720150  0.32999520     0.11200
H159        H  0.30624024  0.52386316  0.25625176     0.11300
H160        H  0.25893660  0.42900957  0.26480915     0.10100
C161        C  0.80930713  0.88167295  0.33439382    -0.03700
C162        C  0.79607816  0.87050028  0.29899384    -0.09500
C163        C  0.74335999  0.84230319  0.28794673    -0.17100
C164        C  0.70345927  0.82468619  0.31215386     0.25000
C165        C  0.71646205  0.83379816  0.34731228    -0.18800
C166        C  0.76887816  0.86205653  0.35836806    -0.07700
C167        C  0.64912659  0.79938854  0.30159424    -0.14100
C168        C  0.60261115  0.77921041  0.29636318    -0.13900
C169        C  0.54645055  0.75495196  0.29396231     0.24900
C170        C  0.51478669  0.71546585  0.31549871    -0.19300
C171        C  0.46040792  0.69236784  0.31414069    -0.07700
C172        C  0.43666271  0.70835123  0.29114574    -0.03800
C173        C  0.46877340  0.74853191  0.26982181    -0.09100
C174        C  0.52335185  0.77162804  0.27120391    -0.16800
H175        H  0.82634873  0.88541957  0.27994116     0.11400
H176        H  0.73378519  0.83546910  0.26064455     0.10700
H177        H  0.68599805  0.82023367  0.36629055     0.10600
H178        H  0.77775656  0.86977399  0.38578110     0.11100
H179        H  0.53217548  0.70265032  0.33350334     0.11200
H180        H  0.43690668  0.66224349  0.33133666     0.11200
H181        H  0.45162132  0.76141725  0.25171875     0.11300
H182        H  0.54747098  0.80241319  0.25455302     0.10100
C183        C  0.09550084  0.91810716  0.30772209    -0.03700
C184        C  0.06886681  0.86337526  0.29726532    -0.09500
C185        C  0.09662527  0.83741132  0.28946089    -0.17100
C186        C  0.15141225  0.86563701  0.29201875     0.25000
C187        C  0.17838408  0.92058662  0.30092410    -0.18800
C188        C  0.15065081  0.94673965  0.30857840    -0.07700
C189        C  0.17937054  0.83746513  0.28781163    -0.13900
C190        C  0.20104333  0.81214950  0.28608079    -0.13900
C191        C  0.22534251  0.78045631  0.28563800     0.24900
C192        C  0.27013393  0.79366119  0.26633151    -0.19300
C193        C  0.29390888  0.76319541  0.26641625    -0.07700
C194        C  0.27329543  0.71901146  0.28591255    -0.03800
C195        C  0.22812485  0.70604490  0.30513600    -0.09100
C196        C  0.20439180  0.73646028  0.30494256    -0.16800
H197        H  0.02644843  0.84018949  0.29643669     0.11400
H198        H  0.07523165  0.79493016  0.28261459     0.10700
H199        H  0.22076872  0.94291699  0.30310363     0.10600
H200        H  0.17228021  0.98876196  0.31690629     0.11100
H201        H  0.28672790  0.82753009  0.25122279     0.11200
H202        H  0.32815666  0.77396750  0.25096700     0.11200
H203        H  0.21162318  0.67296246  0.32090305     0.11300
H204        H  0.16988128  0.72587753  0.32011360     0.10100
C205        C  0.26851571  0.55548841  0.78162193    -0.03700
C206        C  0.22040895  0.52357778  0.76340396    -0.09500
C207        C  0.18850379  0.46967979  0.76839267    -0.17100
C208        C  0.20410763  0.44662362  0.79158675     0.25000
C209        C  0.25232383  0.47773514  0.80936855    -0.18800
C210        C  0.28432782  0.53171753  0.80442839    -0.07700
C211        C  0.17060809  0.39127958  0.79742167    -0.14100
C212        C  0.14444378  0.34522531  0.80332176    -0.13900
C213        C  0.11778961  0.29089063  0.81203913     0.24900
C214        C  0.13937584  0.27746259  0.83783235    -0.19300
C215        C  0.11656565  0.22471773  0.84518533    -0.07700
C216        C  0.07164114  0.18407344  0.82676789    -0.03800
C217        C  0.04901743  0.19795179  0.80156873    -0.09100
C218        C  0.07203674  0.25111997  0.79423971    -0.16800
H219        H  0.20737625  0.54034229  0.74526312     0.11400
H220        H  0.15150199  0.44608898  0.75430466     0.10700
H221        H  0.26492200  0.46040446  0.82739506     0.10600
H222        H  0.32072798  0.55513041  0.81914854     0.11100
H223        H  0.17462079  0.30771126  0.85185116     0.11200
H224        H  0.13504661  0.21568725  0.86484305     0.11200
H225        H  0.01445329  0.16768102  0.78699746     0.11300
H226        H  0.05482090  0.26100427  0.77424194     0.10100
C227        C  0.44433722  0.72422539  0.77389848    -0.03700
C228        C  0.47438134  0.77538578  0.79111799    -0.09500
C229        C  0.52920542  0.80263647  0.79094018    -0.17100
C230        C  0.55522248  0.77939489  0.77362417     0.25000
C231        C  0.52581456  0.72846016  0.75646677    -0.18800
C232        C  0.47084882  0.70107881  0.75657869    -0.07700
C233        C  0.61196331  0.80754072  0.77430692    -0.14100
C234        C  0.65934369  0.83185876  0.77680548    -0.13900
C235        C  0.71557449  0.86091166  0.78266904     0.24900
C236        C  0.74628855  0.91419262  0.77563685    -0.19300
C237        C  0.79985056  0.94362743  0.78468797    -0.07700
C238        C  0.82343003  0.92013800  0.80096400    -0.03800
C239        C  0.79264979  0.86602042  0.80662087    -0.09100
C240        C  0.73924943  0.83678283  0.79761655    -0.16800
H241        H  0.45551189  0.79414501  0.80522393     0.11400
H242        H  0.55133766  0.84179869  0.80455752     0.10700
H243        H  0.54534799  0.70986806  0.74300330     0.10600
H244        H  0.44913242  0.66209844  0.74273287     0.11100
H245        H  0.72853010  0.93345893  0.76412783     0.11200
H246        H  0.82229303  0.98519335  0.78009921     0.11200
H247        H  0.80933950  0.84663359  0.81921120     0.11300
H248        H  0.71607662  0.79569840  0.80328838     0.10100
C249        C  0.09313506  0.91873142  0.80492165    -0.03700
C250        C  0.14370487  0.94417599  0.79117805    -0.09500
C251        C  0.16750554  0.91519079  0.78012796    -0.17100
C252        C  0.14113799  0.86033109  0.78248759     0.25000
C253        C  0.08968076  0.83422734  0.79430078    -0.18800
C254        C  0.06573499  0.86315917  0.80535163    -0.07700
C255        C  0.16844329  0.83182356  0.77567095    -0.14100
C256        C  0.19262358  0.80904690  0.77249847    -0.13900
C257        C  0.22199158  0.78229352  0.77103134     0.24900
C258        C  0.20205531  0.73255916  0.75249882    -0.19300
C259        C  0.22933051  0.70554873  0.75250420    -0.07700
C260        C  0.27703446  0.72781059  0.77114421    -0.03800
C261        C  0.29718418  0.77822986  0.78923515    -0.09100
C262        C  0.26982593  0.80517021  0.78919153    -0.16800
H263        H  0.16589111  0.98687265  0.79045027     0.11400
H264        H  0.20729617  0.93592968  0.77104780     0.10700
H265        H  0.06882443  0.79180139  0.79630455     0.10600
H266        H  0.02691054  0.84237765  0.81592697     0.11100
H267        H  0.16513841  0.71437953  0.73831028     0.11200
H268        H  0.21305200  0.66716978  0.73791925     0.11200
H269        H  0.33338628  0.79623329  0.80419273     0.11300
H270        H  0.28561130  0.84352200  0.80378219     0.10100
C271        C  0.70793582  0.26606638  0.43446813    -0.03700
C272        C  0.69895020  0.22565074  0.45517971    -0.09500
C273        C  0.72960078  0.20205342  0.45183333    -0.17100
C274        C  0.76948290  0.21832683  0.42765371     0.25000
C275        C  0.77836293  0.25822048  0.40678777    -0.18800
C276        C  0.74796360  0.28198218  0.41018984    -0.07700
C277        C  0.80070145  0.19358958  0.42360109    -0.14100
C278        C  0.82640188  0.17265888  0.41836236    -0.13900
C279        C  0.85523570  0.14619788  0.40947106     0.24900
C280        C  0.85145469  0.12328995  0.37582838    -0.19300
C281        C  0.87708523  0.09544209  0.36706585    -0.07700
C282        C  0.90696944  0.08984615  0.39186416    -0.03800
C283        C  0.91173830  0.11412039  0.42546886    -0.09100
C284        C  0.88598689  0.14209138  0.43419944    -0.16800
H285        H  0.66868155  0.21280710  0.47425494     0.11400
H286        H  0.72216514  0.17112224  0.46807922     0.10700
H287        H  0.80874100  0.27089046  0.38777280     0.10600
H288        H  0.75532667  0.31238826  0.39350891     0.11100
H289        H  0.82792165  0.12621043  0.35642080     0.11200
H290        H  0.87246319  0.07722728  0.34099152     0.11200
H291        H  0.93428350  0.11041654  0.44518340     0.11300
H292        H  0.88935563  0.15971374  0.46033294     0.10100
C293        C  0.86619985  0.80256441  0.40337838    -0.03700
C294        C  0.84022842  0.78903073  0.43480527    -0.09500
C295        C  0.81043631  0.73574879  0.44186883    -0.17100
C296        C  0.80606956  0.69559986  0.41751520     0.25000
C297        C  0.83015088  0.70870581  0.38573453    -0.18800
C298        C  0.85993569  0.76170866  0.37867679    -0.07700
C299        C  0.77926476  0.64108620  0.42532280    -0.14100
C300        C  0.75957046  0.59479771  0.42984521    -0.13900
C301        C  0.73814783  0.53921747  0.43327794     0.24900
C302        C  0.75616536  0.51086815  0.41245240    -0.19300
C303        C  0.73479356  0.45661153  0.41508671    -0.07700
C304        C  0.69500045  0.42993257  0.43861933    -0.03800
C305        C  0.67766326  0.45899763  0.45977520    -0.09100
C306        C  0.69905252  0.51323377  0.45706244    -0.16800
H307        H  0.84459558  0.81961414  0.45438915     0.11400
H308        H  0.79196814  0.72600118  0.46659303     0.10700
H309        H  0.82701233  0.67799124  0.36669791     0.10600
H310        H  0.87931452  0.77075788  0.35420014     0.11100
H311        H  0.78636825  0.53059962  0.39389061     0.11200
H312        H  0.74846061  0.43528154  0.39811558     0.11200
H313        H  0.64756940  0.43978927  0.47846193     0.11300
H314        H  0.68493680  0.53480646  0.47338966     0.10100
C315        C  0.15831620  0.06119649  0.41718800    -0.03700
C316        C  0.18060775  0.03341766  0.42929512    -0.09500
C317        C  0.23288090  0.06049680  0.44076064    -0.17100
C318        C  0.26350897  0.11566179  0.44046430     0.25000
C319        C  0.24098459  0.14392904  0.43008917    -0.18800
C320        C  0.18865619  0.11692549  0.41860890    -0.07700
C321        C  0.31904440  0.14258621  0.44747401    -0.14100
C322        C  0.36619634  0.16561728  0.44975434    -0.13900
C323        C  0.42252087  0.19492811  0.44853150     0.24900
C324        C  0.44719907  0.23631096  0.42716818    -0.19300
C325        C  0.50168435  0.26488580  0.42518750    -0.07700
C326        C  0.53253128  0.25265761  0.44467602    -0.03800
C327        C  0.50743974  0.21050818  0.46580056    -0.09100
C328        C  0.45267727  0.18182354  0.46773108    -0.16800
H329        H  0.15833950  0.99051987  0.42857459     0.11400
H330        H  0.24993694  0.03818795  0.44859386     0.10700
H331        H  0.26443068  0.18664416  0.42958623     0.10600
H332        H  0.17277614  0.13945960  0.40935351     0.11100
H333        H  0.42426169  0.24644129  0.41191979     0.11200
H334        H  0.51970467  0.29640303  0.40817552     0.11200
H335        H  0.53017388  0.20041843  0.48124753     0.11300
H336        H  0.43393194  0.14963961  0.48422307     0.10100
C337        C  0.90252904  0.07219895  0.91194406    -0.03700
C338        C  0.92696771  0.12720799  0.90970213    -0.09500
C339        C  0.90480668  0.15559954  0.92504180    -0.17100
C340        C  0.85795794  0.12950405  0.94279960     0.25000
C341        C  0.83431585  0.07510950  0.94627823    -0.18800
C342        C  0.85659131  0.04660359  0.93106675    -0.07700
C343        C  0.83196294  0.15776782  0.95427054    -0.14100
C344        C  0.81038307  0.18279391  0.95955883    -0.13900
C345        C  0.78531450  0.21357868  0.96087617     0.24900
C346        C  0.74278937  0.20150315  0.98227857    -0.19300
C347        C  0.71639534  0.22927301  0.98131731    -0.07700
C348        C  0.73216437  0.26936485  0.95882798    -0.03800
C349        C  0.77550532  0.28167936  0.93786915    -0.09100
C350        C  0.80182612  0.25400455  0.93892921    -0.16800
H351        H  0.96243948  0.14806230  0.89526145     0.11400
H352        H  0.92329036  0.19761666  0.92203166     0.10700
H353        H  0.79784739  0.05443018  0.95976908     0.10600
H354        H  0.83687142  0.00427650  0.93320948     0.11100
H355        H  0.72956065  0.17016220  0.99929279     0.11200
H356        H  0.68353873  0.21925584  0.99803504     0.11200
H357        H  0.78812299  0.31160634  0.91985158     0.11300
H358        H  0.83440371  0.26336432  0.92202760     0.10100
C359        C  0.73023763  0.43430365  0.94072451    -0.03700
C360        C  0.77563268  0.47065228  0.96044896    -0.09500
C361        C  0.80517517  0.52379923  0.95326233    -0.17100
C362        C  0.78991418  0.54145612  0.92622877     0.25000
C363        C  0.74423357  0.50581477  0.90687054    -0.18800
C364        C  0.71449238  0.45262774  0.91410711    -0.07700
C365        C  0.82155601  0.59587516  0.91808238    -0.14100
C366        C  0.84810526  0.64142715  0.91129457    -0.13900
C367        C  0.87878280  0.69606803  0.90344539     0.24900
C368        C  0.85638557  0.71726397  0.88395018    -0.19300
C369        C  0.88493701  0.77084279  0.87769822    -0.07700
C370        C  0.93645224  0.80419078  0.89090567    -0.03800
C371        C  0.95914373  0.78228988  0.90980705    -0.09100
C372        C  0.93045731  0.72858783  0.91602419    -0.16800
H373        H  0.78840351  0.45786157  0.98135728     0.11400
H374        H  0.84024245  0.55098461  0.96856481     0.10700
H375        H  0.73197396  0.51896407  0.88588235     0.10600
H376        H  0.68006276  0.42549357  0.89826153     0.11100
H377        H  0.81647018  0.69258415  0.87407238     0.11200
H378        H  0.86613103  0.78640346  0.86321652     0.11200
H379        H  0.99855736  0.80690064  0.92050351     0.11300
H380        H  0.94826522  0.71268100  0.93115724     0.10100
C381        C  0.56051106  0.26126361  0.95072415    -0.03700
C382        C  0.53343178  0.22221908  0.97385734    -0.09500
C383        C  0.47872171  0.19060548  0.97212354    -0.17100
C384        C  0.45026446  0.19751810  0.94727277     0.25000
C385        C  0.47678031  0.23663585  0.92440951    -0.18800
C386        C  0.53148021  0.26833300  0.92611782    -0.07700
C387        C  0.39392967  0.16459361  0.94500649    -0.14100
C388        C  0.34680452  0.13903151  0.94160607    -0.13900
C389        C  0.29106729  0.11252384  0.93522790     0.24900
C390        C  0.26692935  0.14260240  0.93612652    -0.19300
C391        C  0.21429406  0.11871029  0.92619916    -0.07700
C392        C  0.18487712  0.06421619  0.91520834    -0.03800
C393        C  0.20865392  0.03363782  0.91590020    -0.09100
C394        C  0.26158942  0.05776890  0.92572428    -0.16800
H395        H  0.55459216  0.21622358  0.99336357     0.11400
H396        H  0.45867033  0.16066987  0.99006929     0.10700
H397        H  0.45517959  0.24234804  0.90504413     0.10600
H398        H  0.55111979  0.29750817  0.90767339     0.11100
H399        H  0.28928833  0.18496437  0.94338821     0.11200
H400        H  0.19711622  0.14332918  0.92599383     0.11200
H401        H  0.18711427  0.99170502  0.90731246     0.11300
H402        H  0.27990745  0.03409121  0.92481472     0.10100
loop_ 
_geom_bond_atom_site_label_1 
_geom_bond_atom_site_label_2 
_geom_bond_distance 
_geom_bond_site_symmetry_2 
_ccdc_geom_bond_type 
C1            C2   1.409       .  A
C1            C6   1.406       .  A
C1          C381   1.489       .  S
C2            C3   1.407       .  A
C2            H7   1.083       .  S
C3            C4   1.405       .  A
C3          C359   1.488       .  S
C4            C5   1.405       .  A
C4            H8   1.083       .  S
C5            C6   1.404       .  A
C5          C348   1.487       .  S
C6            H9   1.083       .  S
C10          C11   1.403       .  A
C10          C15   1.407       .  A
C10         C326   1.486       .  S
C11          C12   1.402       .  A
C11          H16   1.083       .  S
C12          C13   1.406       .  A
C12         C304   1.487       .  S
C13          C14   1.408       .  A
C13          H17   1.083       .  S
C14          C15   1.408       .  A
C14         C271   1.489       .  S
C15          H18   1.083       .  S
C19          C20   1.411       .  A
C19          C24   1.410       .  A
C19         C227   1.497       .  S
C20          C21   1.410       .  A
C20          H25   1.083       .  S
C21          C22   1.406       .  A
C21         C205   1.493       .  S
C22          C23   1.404       .  A
C22          H26   1.083       .  S
C23          C24   1.407       .  A
C23         C260   1.492       .  S
C24          H27   1.083       .  S
C28          C29   1.407       .  A
C28          C33   1.403       .  A
C28         C172   1.488       .  S
C29          C30   1.410       .  A
C29          H34   1.083       .  S
C30          C31   1.410       .  A
C30         C194   1.494       .  S
C31          C32   1.406       .  A
C31          H35   1.083       .  S
C32          C33   1.403       .  A
C32         C150   1.487       .  S
C33          H36   1.083       .  S
O37          C45   1.268   1_545  A
O37         Co57   2.014       .  S
O38          C46   1.298       .  A
O38         Co58   2.069       .  S
O39          C47   1.272   1_455  A
O39         Co59   1.900       .  S
O40          C48   1.261   1_665  A
O40         Co60   1.989   1_565  S
O41          C47   1.299       .  A
O41         Co58   2.076       .  S
O42          C48   1.267       .  A
O42         Co57   2.010       .  S
O43          C46   1.275   1_545  A
O43         Co60   1.910       .  S
O44          C45   1.261       .  A
O44         Co59   1.988       .  S
C45         C249   1.485       .  S
C46         C238   1.487       .  S
C47         C370   1.484       .  S
C48          C95   1.485   1_545  S
O49          C62   1.264       .  A
O49         Co57   1.970       .  S
O50          C63   1.255       .  A
O50         Co58   2.001       .  S
O51          C64   1.271   1_565  A
O51         Co59   2.019       .  S
O52          C65   1.245       .  A
O52         Co60   1.963       .  S
O53          C65   1.254   1_565  A
O53         Co58   2.001       .  S
O54          C64   1.263       .  A
O54         Co57   1.973       .  S
O55          C62   1.275       .  A
O55         Co60   2.028   1_455  S
O56          C63   1.247   1_455  A
O56         Co59   1.970       .  S
Co57         O61   2.076       .  S
Co58         O61   2.247   1_665  S
Co59         O61   1.935   1_565  S
Co60         O61   1.937   1_655  S
C62         C216   1.487       .  S
C63         C117   1.485       .  S
C64         C392   1.480       .  S
C65         C337   1.480       .  S
O66          C74   1.265       .  A
O66         Co86   2.015   1_565  S
O67          C75   1.278       .  A
O67         Co87   2.018       .  S
O68          C76   1.260       .  A
O68         Co88   1.955   1_655  S
O69          C77   1.264       .  A
O69         Co89   1.888       .  S
O70          C76   1.275       .  A
O70         Co87   2.031       .  S
O71          C77   1.299   1_465  A
O71         Co86   2.119   1_565  S
O72          C75   1.271       .  A
O72         Co89   1.975   1_565  S
O73          C74   1.258       .  A
O73         Co88   1.976       .  S
C74         C183   1.484       .  S
C75         C161   1.481       .  S
C76         C293   1.479       .  S
C77         C128   1.486       .  S
O78          C91   1.268       .  A
O78         Co86   1.893       .  S
O79          C92   1.265   1_645  A
O79         Co87   1.968   1_545  S
O80          C93   1.278   1_565  A
O80         Co88   2.020       .  S
O81          C94   1.264       .  A
O81         Co89   1.999       .  S
O82          C94   1.263       .  A
O82         Co87   1.989   1_545  S
O83          C93   1.270       .  A
O83         Co86   1.973       .  S
O84          C91   1.297       .  A
O84         Co89   2.109   1_455  S
O85          C92   1.276       .  A
O85         Co88   2.032       .  S
Co86         O90   2.012   1_445  S
Co87         O90   2.035       .  S
Co88         O90   2.021   1_455  S
Co89         O90   1.992   1_545  S
C91         C139   1.482       .  S
C92         C106   1.487       .  S
C93         C315   1.481       .  S
C94         C282   1.486       .  S
C95          C96   1.407   1_455  A
C95         C100   1.408   1_565  A
C96          C97   1.403       .  A
C96         H109   1.083       .  S
C97          C98   1.403   1_655  A
C97         H110   1.083       .  S
C98          C99   1.399   1_565  A
C98         C101   1.446       .  S
C99         C100   1.399       .  A
C99         H111   1.084       .  S
C100        H112   1.083       .  S
C101        C102   1.210       .  T
C102        C103   1.446       .  S
C103        C104   1.402       .  A
C103        C108   1.400   1_565  A
C104        C105   1.403       .  A
C104        H113   1.083       .  S
C105        C106   1.409       .  A
C105        H114   1.083       .  S
C106        C107   1.408   1_565  A
C107        C108   1.399       .  A
C107        H115   1.083       .  S
C108        H116   1.083       .  S
C117        C118   1.408   1_666  A
C117        C122   1.408   1_556  A
C118        C119   1.401       .  A
C118        H131   1.083   1_554  S
C119        C120   1.401   1_445  A
C119        H132   1.083       .  S
C120        C121   1.401       .  A
C120        C123   1.446       .  S
C121        C122   1.401       .  A
C121        H133   1.084       .  S
C122        H134   1.083   1_554  S
C123        C124   1.210       .  T
C124        C125   1.447       .  S
C125        C126   1.400       .  A
C125        C130   1.402   1_655  A
C126        C127   1.399   1_565  A
C126        H135   1.084   1_565  S
C127        C128   1.409       .  A
C127        H136   1.083       .  S
C128        C129   1.407   1_645  A
C129        C130   1.403       .  A
C129        H137   1.083       .  S
C130        H138   1.083       .  S
C139        C140   1.407       .  A
C139        C144   1.408       .  A
C140        C141   1.399       .  A
C140        H153   1.083       .  S
C141        C142   1.400       .  A
C141        H154   1.084       .  S
C142        C143   1.400       .  A
C142        C145   1.442       .  S
C143        C144   1.400       .  A
C143        H155   1.083       .  S
C144        H156   1.083       .  S
C145        C146   1.208       .  T
C146        C147   1.442       .  S
C147        C148   1.401       .  A
C147        C152   1.399       .  A
C148        C149   1.401       .  A
C148        H157   1.083       .  S
C149        C150   1.407       .  A
C149        H158   1.083       .  S
C150        C151   1.408       .  A
C151        C152   1.398       .  A
C151        H159   1.083       .  S
C152        H160   1.083       .  S
C161        C162   1.408       .  A
C161        C166   1.407       .  A
C162        C163   1.403       .  A
C162        H175   1.083       .  S
C163        C164   1.402       .  A
C163        H176   1.083       .  S
C164        C165   1.399       .  A
C164        C167   1.443       .  S
C165        C166   1.396       .  A
C165        H177   1.084       .  S
C166        H178   1.083       .  S
C167        C168   1.208       .  T
C168        C169   1.443       .  S
C169        C170   1.399       .  A
C169        C174   1.402       .  A
C170        C171   1.397       .  A
C170        H179   1.084       .  S
C171        C172   1.408       .  A
C171        H180   1.083       .  S
C172        C173   1.408       .  A
C173        C174   1.402       .  A
C173        H181   1.083       .  S
C174        H182   1.083       .  S
C183        C184   1.408       .  A
C183        C188   1.408       .  A
C184        C185   1.399       .  A
C184        H197   1.083       .  S
C185        C186   1.400       .  A
C185        H198   1.083       .  S
C186        C187   1.402       .  A
C186        C189   1.446       .  S
C187        C188   1.403       .  A
C187        H199   1.083       .  S
C188        H200   1.083       .  S
C189        C190   1.210       .  T
C190        C191   1.446       .  S
C191        C192   1.401       .  A
C191        C196   1.400       .  A
C192        C193   1.402       .  A
C192        H201   1.083       .  S
C193        C194   1.409       .  A
C193        H202   1.083       .  S
C194        C195   1.409       .  A
C195        C196   1.400       .  A
C195        H203   1.083       .  S
C196        H204   1.083       .  S
C205        C206   1.410       .  A
C205        C210   1.408       .  A
C206        C207   1.400       .  A
C206        H219   1.083       .  S
C207        C208   1.399       .  A
C207        H220   1.083       .  S
C208        C209   1.402       .  A
C208        C211   1.446       .  S
C209        C210   1.402       .  A
C209        H221   1.084       .  S
C210        H222   1.083       .  S
C211        C212   1.210       .  T
C212        C213   1.446       .  S
C213        C214   1.397       .  A
C213        C218   1.404       .  A
C214        C215   1.396       .  A
C214        H223   1.084       .  S
C215        C216   1.409       .  A
C215        H224   1.083       .  S
C216        C217   1.407       .  A
C217        C218   1.406       .  A
C217        H225   1.083       .  S
C218        H226   1.083       .  S
C227        C228   1.409       .  A
C227        C232   1.410       .  A
C228        C229   1.400       .  A
C228        H241   1.083       .  S
C229        C230   1.400       .  A
C229        H242   1.083       .  S
C230        C231   1.402       .  A
C230        C233   1.449       .  S
C231        C232   1.404       .  A
C231        H243   1.083       .  S
C232        H244   1.082       .  S
C233        C234   1.211       .  T
C234        C235   1.448       .  S
C235        C236   1.403       .  A
C235        C240   1.400       .  A
C236        C237   1.404       .  A
C236        H245   1.083       .  S
C237        C238   1.408       .  A
C237        H246   1.083       .  S
C238        C239   1.409       .  A
C239        C240   1.400       .  A
C239        H247   1.083       .  S
C240        H248   1.083       .  S
C249        C250   1.409       .  A
C249        C254   1.408       .  A
C250        C251   1.400       .  A
C250        H263   1.083       .  S
C251        C252   1.400       .  A
C251        H264   1.084       .  S
C252        C253   1.402       .  A
C252        C255   1.446       .  S
C253        C254   1.402       .  A
C253        H265   1.083       .  S
C254        H266   1.083       .  S
C255        C256   1.210       .  T
C256        C257   1.446       .  S
C257        C258   1.400       .  A
C257        C262   1.401       .  A
C258        C259   1.400       .  A
C258        H267   1.084       .  S
C259        C260   1.409       .  A
C259        H268   1.083       .  S
C260        C261   1.408       .  A
C261        C262   1.401       .  A
C261        H269   1.083       .  S
C262        H270   1.083       .  S
C271        C272   1.408       .  A
C271        C276   1.408       .  A
C272        C273   1.402       .  A
C272        H285   1.083       .  S
C273        C274   1.402       .  A
C273        H286   1.083       .  S
C274        C275   1.400       .  A
C274        C277   1.446       .  S
C275        C276   1.399       .  A
C275        H287   1.083       .  S
C276        H288   1.083       .  S
C277        C278   1.210       .  T
C278        C279   1.446       .  S
C279        C280   1.399       .  A
C279        C284   1.402       .  A
C280        C281   1.398       .  A
C280        H289   1.084       .  S
C281        C282   1.408       .  A
C281        H290   1.083       .  S
C282        C283   1.408       .  A
C283        C284   1.404       .  A
C283        H291   1.083       .  S
C284        H292   1.083       .  S
C293        C294   1.407       .  A
C293        C298   1.407       .  A
C294        C295   1.402       .  A
C294        H307   1.083       .  S
C295        C296   1.401       .  A
C295        H308   1.083       .  S
C296        C297   1.398       .  A
C296        C299   1.439       .  S
C297        C298   1.395       .  A
C297        H309   1.084       .  S
C298        H310   1.083       .  S
C299        C300   1.206       .  T
C300        C301   1.440       .  S
C301        C302   1.400       .  A
C301        C306   1.398       .  A
C302        C303   1.398       .  A
C302        H311   1.084       .  S
C303        C304   1.407       .  A
C303        H312   1.083       .  S
C304        C305   1.409       .  A
C305        C306   1.398       .  A
C305        H313   1.083       .  S
C306        H314   1.083       .  S
C315        C316   1.408       .  A
C315        C320   1.407       .  A
C316        C317   1.398       .  A
C316        H329   1.083   1_545  S
C317        C318   1.398       .  A
C317        H330   1.084       .  S
C318        C319   1.401       .  A
C318        C321   1.440       .  S
C319        C320   1.399       .  A
C319        H331   1.083       .  S
C320        H332   1.083       .  S
C321        C322   1.206       .  T
C322        C323   1.440       .  S
C323        C324   1.398       .  A
C323        C328   1.401       .  A
C324        C325   1.395       .  A
C324        H333   1.084       .  S
C325        C326   1.408       .  A
C325        H334   1.083       .  S
C326        C327   1.407       .  A
C327        C328   1.402       .  A
C327        H335   1.083       .  S
C328        H336   1.083       .  S
C337        C338   1.406       .  A
C337        C342   1.408       .  A
C338        C339   1.397       .  A
C338        H351   1.083       .  S
C339        C340   1.399       .  A
C339        H352   1.084       .  S
C340        C341   1.400       .  A
C340        C343   1.439       .  S
C341        C342   1.400       .  A
C341        H353   1.083       .  S
C342        H354   1.083       .  S
C343        C344   1.206       .  T
C344        C345   1.440       .  S
C345        C346   1.400       .  A
C345        C350   1.399       .  A
C346        C347   1.400       .  A
C346        H355   1.083       .  S
C347        C348   1.409       .  A
C347        H356   1.083       .  S
C348        C349   1.407       .  A
C349        C350   1.396       .  A
C349        H357   1.083       .  S
C350        H358   1.084       .  S
C359        C360   1.408       .  A
C359        C364   1.407       .  A
C360        C361   1.399       .  A
C360        H373   1.083       .  S
C361        C362   1.400       .  A
C361        H374   1.083       .  S
C362        C363   1.401       .  A
C362        C365   1.444       .  S
C363        C364   1.401       .  A
C363        H375   1.083       .  S
C364        H376   1.083       .  S
C365        C366   1.209       .  T
C366        C367   1.444       .  S
C367        C368   1.399       .  A
C367        C372   1.401       .  A
C368        C369   1.399       .  A
C368        H377   1.083       .  S
C369        C370   1.408       .  A
C369        H378   1.083       .  S
C370        C371   1.408       .  A
C371        C372   1.402       .  A
C371        H379   1.083       .  S
C372        H380   1.083       .  S
C381        C382   1.409       .  A
C381        C386   1.407       .  A
C382        C383   1.400       .  A
C382        H395   1.083       .  S
C383        C384   1.399       .  A
C383        H396   1.083       .  S
C384        C385   1.401       .  A
C384        C387   1.442       .  S
C385        C386   1.399       .  A
C385        H397   1.083       .  S
C386        H398   1.083       .  S
C387        C388   1.207       .  T
C388        C389   1.442       .  S
C389        C390   1.398       .  A
C389        C394   1.402       .  A
C390        C391   1.396       .  A
C390        H399   1.084       .  S
C391        C392   1.407       .  A
C391        H400   1.083       .  S
C392        C393   1.407       .  A
C393        C394   1.402       .  A
C393        H401   1.083   1_545  S
C394        H402   1.083       .  S
