geometry optimzed in LAMMPS
_audit_creation_date              2020-12-01 
_audit_creation_method            'lammps2cif' 
_symmetry_space_group_name_H-M    'P1' 
_symmetry_Int_Tables_number       1 
_symmetry_cell_setting            triclinic 
loop_ 
_symmetry_equiv_pos_as_xyz 
  x,y,z 
_cell_length_a                    53.44889957 
_cell_length_b                    53.003432318954935 
_cell_length_c                    68.79717273488025 
_cell_angle_alpha                 90.15399389925699 
_cell_angle_beta                  90.47939763660727 
_cell_angle_gamma                 118.89556366215001 
loop_ 
_atom_site_label 
_atom_site_type_symbol 
_atom_site_fract_x 
_atom_site_fract_y 
_atom_site_fract_z 
_atom_site_charge 
O1          O  0.85119320  0.11304385  0.18460726    -0.77800
C2          C  0.87074286  0.20105816  0.20150199     0.83300
O3          O  0.76166524  0.10351272  0.20352015    -0.78900
O4          O  0.79666164  0.19744762  0.16840666    -0.80400
O5          O  0.84153546  0.15540063  0.12673755    -0.80100
O6          O  0.83756229  0.10120804  0.15369548    -0.78800
Zn7        Zn  0.83247750  0.13666379  0.19323005     1.55700
O8          O  0.84884152  0.19719163  0.13948799    -0.80200
Cd9        Cd  0.81719452  0.12488713  0.14730631     1.59700
Cd10       Cd  0.77135496  0.12583672  0.17753976     1.59600
O11         O  0.77774650  0.09780952  0.13477814    -0.80200
O12         O  0.81295485  0.14349108  0.17145454    -1.90700
Cd13       Cd  0.82907811  0.18593357  0.16662811     1.59900
O14         O  0.74622316  0.09816650  0.15564301    -0.80100
O15         O  0.86049223  0.20915834  0.18752953    -0.78800
C16         C  0.77791146  0.10206156  0.21662816     0.83800
C17         C  0.85053316  0.09979008  0.16892262     0.83400
O18         O  0.86209732  0.17448177  0.20491380    -0.77700
C19         C  0.85214854  0.18268277  0.12583324     0.84200
O20         O  0.80492496  0.11431276  0.21468144    -0.77800
C21         C  0.75208026  0.08977043  0.13981367     0.84400
C22         C  0.77085548  0.18365908  0.17431693     0.84700
O23         O  0.75936530  0.15731519  0.17928862    -0.80200
C24         C  0.00833639  0.32169449  0.31504852     0.81000
N25         N  0.00388689  0.33668690  0.32941149    -0.77300
C26         C  0.02457258  0.35155969  0.34291433     0.83400
N27         N  0.04988479  0.35141032  0.34198642    -0.77300
C28         C  0.05469236  0.33667653  0.32763798     0.83500
N29         N  0.03382597  0.32179918  0.31416789    -0.79000
C30         C  0.65879544  0.96160819  0.32658979     0.81000
N31         N  0.65809657  0.93630887  0.33097645    -0.77300
C32         C  0.64472373  0.92163389  0.34723181     0.83400
N33         N  0.63165489  0.93222571  0.35893762    -0.77300
C34         C  0.63194423  0.95736713  0.35461712     0.83500
N35         N  0.64547043  0.97199185  0.33837678    -0.79000
C36         C  0.97419583  0.34447051  0.02682844     0.81000
N37         N  0.98704194  0.33935500  0.01132895    -0.77300
C38         C  0.00029677  0.36039968  0.99769304     0.83400
N39         N  0.00040320  0.38599704  0.99968452    -0.77300
C40         C  0.98762958  0.39099240  0.01502472     0.83500
N41         N  0.97478316  0.37024704  0.02848058    -0.79000
C42         C  0.64185513  0.98240230  0.01413180     0.81000
N43         N  0.61494867  0.97899310  0.01331855    -0.77300
C44         C  0.59862741  0.96808054  0.99697431     0.83400
N45         N  0.60935936  0.96060758  0.98152352    -0.77300
C46         C  0.63625895  0.96409150  0.98221222     0.83500
N47         N  0.65235755  0.97497280  0.99854555    -0.79000
O48         O  0.43172354  0.46090403  0.45457876    -0.77800
C49         C  0.43795443  0.52003379  0.50314141     0.83300
O50         O  0.53187511  0.52584295  0.46441790    -0.78900
O51         O  0.50975603  0.51366918  0.53238201    -0.80400
O52         O  0.44019651  0.41601743  0.51536093    -0.80100
O53         O  0.42866494  0.42058274  0.46700963    -0.78800
Zn54       Zn  0.46022015  0.49387569  0.47193621     1.55700
O55         O  0.44838373  0.45259078  0.53522159    -0.80200
Cd56       Cd  0.45930265  0.43555406  0.48919548     1.59700
Cd57       Cd  0.51892473  0.49546767  0.48626905     1.59600
O58         O  0.49020244  0.42306910  0.48317775    -0.80200
O59         O  0.47691086  0.47862627  0.49113358    -1.90700
Cd60       Cd  0.47078929  0.48904188  0.51816777     1.59900
O61         O  0.53086384  0.46430461  0.48004036    -0.80100
O62         O  0.44810963  0.51182404  0.51711541    -0.78800
C63         C  0.51815631  0.53454485  0.45361177     0.83800
C64         C  0.42117470  0.43349755  0.45450975     0.83400
O65         O  0.44056659  0.51437912  0.48541702    -0.77700
C66         C  0.43819138  0.42566094  0.53197242     0.84200
O67         O  0.49110220  0.52394381  0.45475362    -0.77800
C68         C  0.51706408  0.43682003  0.48008514     0.84400
C69         C  0.53551868  0.52184898  0.52748047     0.84700
O70         O  0.54189995  0.51651413  0.51076184    -0.80200
O71         O  0.73581431  0.86744549  0.79560382    -0.77800
C72         C  0.66514389  0.79230371  0.76832422     0.83300
O73         O  0.65755123  0.88915822  0.78352648    -0.78900
O74         O  0.59945791  0.78997828  0.80779749    -0.80400
O75         O  0.68141354  0.81387512  0.84922283    -0.80100
O76         O  0.73465704  0.87020661  0.82790921    -0.78800
Zn77       Zn  0.69493132  0.85297873  0.78624728     1.55700
O78         O  0.64833487  0.77813355  0.83115857    -0.80200
Cd79       Cd  0.69116516  0.85080555  0.83336811     1.59700
Cd80       Cd  0.64608934  0.86180774  0.80702787     1.59600
O81         O  0.68171655  0.87730922  0.85061548    -0.80200
O82         O  0.66893327  0.84118581  0.80827443    -1.90700
Cd83       Cd  0.64178231  0.79870445  0.80752816     1.59900
O84         O  0.65217027  0.88575912  0.83199748    -0.80100
O85         O  0.64754526  0.78119684  0.78218040    -0.78800
C86         C  0.67674569  0.89594380  0.77069935     0.83800
C87         C  0.74838467  0.87377074  0.81215298     0.83400
O88         O  0.68395622  0.81889758  0.76829076    -0.77700
C89         C  0.66435651  0.78714151  0.84625016     0.84200
O90         O  0.69301368  0.88453771  0.77027582    -0.77800
C91         C  0.66593773  0.88895749  0.84782401     0.84400
C92         C  0.58787086  0.80604171  0.80632258     0.84700
O93         O  0.60266695  0.83334544  0.80516515    -0.80200
C94         C  0.67968298  0.64425209  0.63650708     0.81000
N95         N  0.67989739  0.66386611  0.64933336    -0.77300
C96         C  0.70423208  0.68192029  0.65915002     0.83400
N97         N  0.72842300  0.68035747  0.65598811    -0.77300
C98         C  0.72857172  0.66093463  0.64313513     0.83500
N99         N  0.70410620  0.64282990  0.63342882    -0.79000
C100        C  0.70211714  0.06815878  0.64311643     0.81000
N101        N  0.72537186  0.09471803  0.64105145    -0.77300
C102        C  0.74953921  0.10228675  0.65180360     0.83400
N103        N  0.75019448  0.08310374  0.66466006    -0.77300
C104        C  0.72711202  0.05665233  0.66685164     0.83500
N105        N  0.70319044  0.04936404  0.65602297    -0.79000
C106        C  0.66920331  0.67540888  0.97105278     0.81000
N107        N  0.68597513  0.68129381  0.98716877    -0.77300
C108        C  0.67842714  0.66201449  0.00191490     0.83400
N109        N  0.65354706  0.63653202  0.00052322    -0.77300
C110        C  0.63646410  0.63052007  0.98441698     0.83500
N111        N  0.64445410  0.65003440  0.96982390    -0.79000
O112        O  0.08400434  0.53908595  0.49090718    -0.77800
C113        C  0.01339033  0.45803581  0.46763138     0.83300
O114        O  0.00818344  0.56031563  0.47996416    -0.78900
O115        O  0.94615495  0.46439590  0.50115350    -0.80400
O116        O  0.02791267  0.48109727  0.54587255    -0.80100
O117        O  0.08491939  0.53818009  0.52327757    -0.78800
Zn118      Zn  0.04215689  0.52011475  0.48276748     1.55700
O119        O  0.98935246  0.44889658  0.52939122    -0.80200
Cd120      Cd  0.04119505  0.51889535  0.52964885     1.59700
Cd121      Cd  0.99780801  0.53510057  0.50479251     1.59600
O122        O  0.03568856  0.54783236  0.54702972    -0.80200
O123        O  0.01741121  0.51092419  0.50519958    -1.90700
Cd124      Cd  0.98734288  0.46928035  0.50417261     1.59900
O125        O  0.00776038  0.56029742  0.52981920    -0.80100
O126        O  0.99458885  0.44857128  0.48090025    -0.78800
C127        C  0.02262964  0.56079557  0.46519380     0.83800
C128        C  0.09779048  0.54482091  0.50698760     0.83400
O129        O  0.03255822  0.48442443  0.46697145    -0.77700
C130        C  0.00647654  0.45583852  0.54391607     0.84200
O131        O  0.03619267  0.54657286  0.46469217    -0.77800
C132        C  0.02235111  0.56216718  0.54508699     0.84400
C133        C  0.93687556  0.48255334  0.50133111     0.84700
O134        O  0.95369947  0.50952790  0.50321027    -0.80200
O135        O  0.87138697  0.74767190  0.18713279    -0.77800
C136        C  0.79546012  0.68901932  0.21488719     0.83300
O137        O  0.88256686  0.66200552  0.19740684    -0.78900
O138        O  0.78095926  0.61615993  0.17989057    -0.80400
O139        O  0.81095997  0.69090401  0.13207983    -0.80100
O140        O  0.86847313  0.74679500  0.15478750    -0.78800
Zn141      Zn  0.85316565  0.70667224  0.19620120     1.55700
O142        O  0.77494651  0.66294551  0.15143715    -0.80200
Cd143      Cd  0.84733661  0.70246668  0.14937519     1.59700
Cd144      Cd  0.85303033  0.65234987  0.17447580     1.59600
O145        O  0.87401304  0.69263258  0.13340092    -0.80200
O146        O  0.83743591  0.68033297  0.17432246    -1.90700
Cd147      Cd  0.79486064  0.65938938  0.17655105     1.59900
O148        O  0.87506861  0.65595745  0.14863690    -0.80100
O149        O  0.78118408  0.67278659  0.20068331    -0.78800
C150        C  0.89232116  0.68273215  0.20975075     0.83800
C151        C  0.87611267  0.76057020  0.17090992     0.83400
O152        O  0.82266682  0.70203709  0.21520507    -0.77700
C153        C  0.78425561  0.67522190  0.13515996     0.84200
O154        O  0.88309346  0.70082508  0.21038045    -0.77800
C155        C  0.88205141  0.67362759  0.13449223     0.84400
C156        C  0.79251742  0.60006929  0.17954337     0.84700
O157        O  0.81942732  0.61013589  0.17739624    -0.80200
C158        C  0.61740618  0.67628001  0.34252576     0.81000
N159        N  0.62393496  0.70438649  0.34464369    -0.77300
C160        C  0.64353048  0.72483078  0.33282543     0.83400
N161        N  0.65677697  0.71708915  0.31920475    -0.77300
C162        C  0.65053580  0.68919601  0.31704662     0.83500
N163        N  0.63056554  0.66880501  0.32859037    -0.79000
C164        C  0.04314558  0.68371904  0.30794233     0.81000
N165        N  0.03950669  0.66573482  0.32307353    -0.77300
C166        C  0.06130127  0.67199873  0.33585376     0.83400
N167        N  0.08655255  0.69617423  0.33346644    -0.77300
C168        C  0.09051515  0.71444809  0.31868636     0.83500
N169        N  0.06875622  0.70825551  0.30580905    -0.79000
O170        O  0.50328570  0.99011708  0.46496732    -0.77800
C171        C  0.44792857  0.93853602  0.51097520     0.83300
O172        O  0.43613863  0.02683523  0.47586521    -0.78900
O173        O  0.45581578  0.01397810  0.54534177    -0.80400
O174        O  0.55035009  0.04636880  0.52113103    -0.80100
O175        O  0.54196354  0.02999997  0.47494528    -0.78800
Zn176      Zn  0.47093983  0.98817933  0.48142529     1.55700
O177        O  0.52021177  0.01573112  0.54281864    -0.80200
Cd178      Cd  0.52667233  0.04466234  0.49712665     1.59700
Cd179      Cd  0.46478149  0.04107992  0.49916147     1.59600
O180        O  0.53536062  0.08649565  0.49145244    -0.80200
O181        O  0.48525511  0.01796896  0.50160839    -1.90700
Cd182      Cd  0.48013593  0.00050730  0.52852022     1.59900
O183        O  0.49293269  0.08442570  0.49420507    -0.80100
O184        O  0.45861727  0.95472719  0.52602494    -0.78800
C185        C  0.43097406  0.00778816  0.46280492     0.83800
C186        C  0.52996686  0.00784956  0.46399898     0.83400
O187        O  0.45073909  0.94902705  0.49397102    -0.77700
C188        C  0.54547580  0.03412664  0.53758401     0.84200
O189        O  0.44291914  0.99198025  0.46314732    -0.77800
C190        C  0.51975358  0.09860557  0.49131895     0.84400
C191        C  0.44318433  0.02871991  0.54153229     0.84700
O192        O  0.44382950  0.03905031  0.52471257    -0.80200
O193        O  0.18939942  0.29983889  0.81585264    -0.77800
C194        C  0.13531013  0.24144239  0.85769069     0.83300
O195        O  0.11867460  0.33126130  0.82744815    -0.78900
O196        O  0.13325038  0.30633491  0.89509434    -0.80400
O197        O  0.23317143  0.35080463  0.87577361    -0.80100
O198        O  0.22801719  0.33933618  0.82640767    -0.78800
Zn199      Zn  0.15573292  0.29415450  0.83159509     1.55700
O200        O  0.19966487  0.31592119  0.89364649    -0.80200
Cd201      Cd  0.21050829  0.35043905  0.85033564     1.59700
Cd202      Cd  0.14431681  0.34190384  0.85260066     1.59600
O203        O  0.21527871  0.39182603  0.84660604    -0.80200
O204        O  0.16826293  0.32189719  0.85287688    -1.90700
Cd205      Cd  0.16183107  0.30070559  0.87790627     1.59900
O206        O  0.17132323  0.38596716  0.85095213    -0.80100
O207        O  0.14471786  0.25667317  0.87311328    -0.78800
C208        C  0.11646491  0.31488534  0.81313091     0.83800
C209        C  0.21590270  0.31780435  0.81473700     0.83400
O210        O  0.13700118  0.25290314  0.84112888    -0.77700
C211        C  0.22541711  0.33555152  0.89120107     0.84200
O212        O  0.12920815  0.29985524  0.81318973    -0.77800
C213        C  0.19793631  0.40198952  0.84788000     0.84400
C214        C  0.11839488  0.31910248  0.89316873     0.84700
O215        O  0.11946414  0.33312537  0.87780237    -0.80200
C216        C  0.35422427  0.32145712  0.66568431     0.81000
N217        N  0.35463285  0.29605003  0.66513053    -0.77300
C218        C  0.34477565  0.27741327  0.68025478     0.83400
N219        N  0.33439344  0.28439042  0.69626134    -0.77300
C220        C  0.33394179  0.30993098  0.69700630     0.83500
N221        N  0.34389012  0.32824775  0.68167839    -0.79000
C222        C  0.98459111  0.32945868  0.66741054     0.81000
N223        N  0.95926768  0.30479685  0.66439450    -0.77300
C224        C  0.94847851  0.28436427  0.67846683     0.83400
N225        N  0.96299096  0.28877253  0.69548917    -0.77300
C226        C  0.98824656  0.31293642  0.69865899     0.83500
N227        N  0.99908729  0.33334670  0.68456580    -0.79000
O228        O  0.32188711  0.19525607  0.19344225    -0.77800
C229        C  0.26426578  0.12924861  0.15177950     0.83300
O230        O  0.35328085  0.12405489  0.18680434    -0.78900
O231        O  0.33540827  0.12812005  0.11830893    -0.80400
O232        O  0.36517321  0.22902673  0.13061932    -0.80100
O233        O  0.35895511  0.23236598  0.17956519    -0.78800
Zn234      Zn  0.31606885  0.15938166  0.17925832     1.55700
O235        O  0.33296644  0.19031296  0.11419111    -0.80200
Cd236      Cd  0.36985778  0.21265375  0.15726878     1.59700
Cd237      Cd  0.36719463  0.15055068  0.16305653     1.59600
O238        O  0.41293435  0.22294409  0.16088848    -0.80200
O239        O  0.34366006  0.16969662  0.15817427    -1.90700
Cd240      Cd  0.32334024  0.15559693  0.13241837     1.59900
O241        O  0.40961643  0.18018275  0.16725408    -0.80100
O242        O  0.27933317  0.13344766  0.13661699    -0.78800
C243        C  0.33437928  0.11942111  0.19945756     0.83800
C244        C  0.33929647  0.22219581  0.19230112     0.83400
O245        O  0.27564304  0.13860732  0.16847003    -0.77700
C246        C  0.34978614  0.21741208  0.11545678     0.84200
O247        O  0.31922935  0.13204668  0.19886541    -0.77800
C248        C  0.42440028  0.20733638  0.16521021     0.84400
C249        C  0.35208933  0.11840775  0.12359277     0.84700
O250        O  0.36508714  0.12500432  0.13991933    -0.80200
C251        C  0.29156125  0.34305537  0.33069923     0.81000
N252        N  0.26662466  0.34382531  0.33274134    -0.77300
C253        C  0.24539279  0.33131141  0.31919219     0.83400
N254        N  0.24916224  0.31777220  0.30357664    -0.77300
C255        C  0.27397150  0.31692759  0.30132110     0.83500
N256        N  0.29519061  0.32974100  0.31488929    -0.79000
C257        C  0.29843516  0.95024141  0.33835917     0.81000
N258        N  0.27682701  0.92443478  0.33212014    -0.77300
C259        C  0.26190872  0.92268196  0.31558576     0.83400
N260        N  0.26884220  0.94690454  0.30528316    -0.77300
C261        C  0.29042140  0.97282851  0.31129234     0.83500
N262        N  0.30510150  0.97443895  0.32790631    -0.79000
C263        C  0.41588939  0.38725178  0.01554831     0.81000
N264        N  0.39667070  0.38361815  0.00116458    -0.77300
C265        C  0.40399094  0.40363272  0.98677119     0.83400
N266        N  0.43055475  0.42715907  0.98694529    -0.77300
C267        C  0.44976719  0.43080611  0.00124811     0.83500
N268        N  0.44220324  0.41081067  0.01541451    -0.79000
O269        O  0.12588662  0.80435017  0.79433435    -0.77800
C270        C  0.12392512  0.86223174  0.83900911     0.83300
O271        O  0.22355043  0.86056343  0.81815382    -0.78900
O272        O  0.17851017  0.84758325  0.88038103    -0.80400
O273        O  0.11150820  0.75260923  0.85547807    -0.80100
O274        O  0.11540463  0.76170585  0.80680378    -0.78800
Zn275      Zn  0.15134935  0.83370622  0.81453084     1.55700
O276        O  0.11528864  0.78781396  0.87521110    -0.80200
Cd277      Cd  0.13861531  0.77306865  0.83264572     1.59700
Cd278      Cd  0.20139570  0.82943371  0.83912585     1.59600
O279        O  0.16711829  0.75717143  0.83151811    -0.80200
O280        O  0.15908658  0.81572599  0.83671763    -1.90700
Cd281      Cd  0.14462883  0.82524811  0.86112115     1.59900
O282        O  0.21034298  0.79513723  0.83612317    -0.80100
O283        O  0.12608442  0.85132790  0.85505730    -0.78800
C284        C  0.21450424  0.87031712  0.80444023     0.83800
C285        C  0.11328219  0.77690915  0.79324834     0.83400
O286        O  0.13267266  0.85705636  0.82310321    -0.77700
C287        C  0.10501117  0.76110751  0.87103348     0.84200
O288        O  0.18793596  0.86131275  0.80158414    -0.77800
C289        C  0.19413344  0.76813305  0.83322686     0.84400
C290        C  0.20500693  0.85482930  0.88036066     0.84700
O291        O  0.21657961  0.84906219  0.86608960    -0.80200
C292        C  0.98247344  0.70850032  0.67069641     0.81000
N293        N  0.98762963  0.69286671  0.65708942    -0.77300
C294        C  0.96775802  0.67835028  0.64291643     0.83400
N295        N  0.94289593  0.67940151  0.64255620    -0.77300
C296        C  0.93767442  0.69489373  0.65605742     0.83500
N297        N  0.95760012  0.70953355  0.66998582    -0.79000
C298        C  0.31789180  0.02476872  0.69728667     0.81000
N299        N  0.31781394  0.05001205  0.70058634    -0.77300
C300        C  0.33175253  0.07273221  0.68841265     0.83400
N301        N  0.34607799  0.07007353  0.67282633    -0.77300
C302        C  0.34622921  0.04472399  0.66956808     0.83500
N303        N  0.33196790  0.02233205  0.68177193    -0.79000
C304        C  0.00605888  0.63948504  0.99490846     0.81000
N305        N  0.99496808  0.64256069  0.01194336    -0.77300
C306        C  0.98561534  0.62129194  0.02548893     0.83400
N307        N  0.98757629  0.59711671  0.02191275    -0.77300
C308        C  0.99867266  0.59386829  0.00500608     0.83500
N309        N  0.00782691  0.61507844  0.99157394    -0.79000
C310        C  0.36662023  0.96225234  0.98613960     0.81000
N311        N  0.35751143  0.97697702  0.99771929    -0.77300
C312        C  0.37373242  0.99283401  0.01303950     0.83400
N313        N  0.39929019  0.99395206  0.01673017    -0.77300
C314        C  0.40860142  0.97932494  0.00529842     0.83500
N315        N  0.39217330  0.96351028  0.98999768    -0.79000
C316        C  0.04193551  0.02840437  0.16773065     0.81000
N317        N  0.02502253  0.04047390  0.17113552    -0.77300
C318        C  0.99613613  0.02412199  0.17091213     0.83400
N319        N  0.98411387  0.99532965  0.16745484    -0.77300
C320        C  0.00080005  0.98290411  0.16413300     0.83500
N321        N  0.02972388  0.99955658  0.16421906    -0.79000
C322        C  0.71284321  0.36118354  0.48349308     0.81000
N323        N  0.69972588  0.37771980  0.48210824    -0.77300
C324        C  0.67066511  0.36497616  0.48008403     0.83400
N325        N  0.65493538  0.33564203  0.47961626    -0.77300
C326        C  0.66796824  0.31913989  0.48106750     0.83500
N327        N  0.69677379  0.33208201  0.48295030    -0.79000
C328        C  0.32043951  0.67227362  0.52330027     0.81000
N329        N  0.33618943  0.70146616  0.52503517    -0.77300
C330        C  0.36511708  0.71502212  0.52303785     0.83400
N331        N  0.37823078  0.69897985  0.51935391    -0.77300
C332        C  0.36281801  0.66973415  0.51772989     0.83500
N333        N  0.33388886  0.65651754  0.51966470    -0.79000
C334        C  0.96713247  0.97839263  0.84069249     0.81000
N335        N  0.97941353  0.96138081  0.84336168    -0.77300
C336        C  0.00834238  0.97327107  0.84496609     0.83400
N337        N  0.02502255  0.00247739  0.84395185    -0.77300
C338        C  0.01273791  0.01954215  0.84125450     0.83500
N339        N  0.98391741  0.00732652  0.83963898    -0.79000
C340        C  0.32345559  0.62479378  0.82466022     0.81000
N341        N  0.30974544  0.64078118  0.82634972    -0.77300
C342        C  0.32501426  0.67013550  0.82475712     0.83400
N343        N  0.35364223  0.68305045  0.82162385    -0.77300
C344        C  0.36721063  0.66717789  0.81993645     0.83500
N345        N  0.35198809  0.63820494  0.82146115    -0.79000
C346        C  0.64894639  0.33429590  0.17126045     0.81000
N347        N  0.66106917  0.31681425  0.16976519    -0.77300
C348        C  0.69008235  0.32849700  0.17059612     0.83400
N349        N  0.70660374  0.35734654  0.17281635    -0.77300
C350        C  0.69485282  0.37481917  0.17433515     0.83500
N351        N  0.66597818  0.36323517  0.17356774    -0.79000
C352        C  0.27808652  0.97461280  0.73991432     0.19400
C353        C  0.28309995  0.97584783  0.76004388    -0.18700
C354        C  0.26755347  0.95154824  0.77160126    -0.10900
C355        C  0.24625891  0.92573580  0.76322799     0.21700
C356        C  0.24107396  0.92462888  0.74314394    -0.20300
C357        C  0.25696126  0.94869119  0.73155957    -0.11100
C358        C  0.22716571  0.90064876  0.77522726    -0.15300
C359        C  0.23536697  0.89346797  0.79193622    -0.29100
C360        C  0.29424037  0.00082215  0.72797910    -0.03400
C361        C  0.30195016  0.99929778  0.70965574    -0.39900
H362        H  0.29903504  0.99567269  0.76682768     0.12800
H363        H  0.27147427  0.95332469  0.78713667     0.12500
H364        H  0.22443771  0.90514447  0.73642817     0.11900
H365        H  0.25204974  0.94723712  0.71616417     0.12100
H366        H  0.20534340  0.88750728  0.76998979     0.14900
H367        H  0.25754553  0.90508524  0.79670977     0.13700
H368        H  0.30096166  0.02176262  0.73464989     0.11300
H369        H  0.29740395  0.97853657  0.70361415     0.13400
C370        C  0.04349791  0.73498138  0.70874580     0.19400
C371        C  0.05402352  0.72034591  0.72029151    -0.18700
C372        C  0.07026502  0.73332407  0.73707092    -0.10900
C373        C  0.07653551  0.76142947  0.74254852     0.21700
C374        C  0.06705382  0.77649185  0.73048670    -0.20300
C375        C  0.05063606  0.76343222  0.71381697    -0.11100
C376        C  0.09351061  0.77607216  0.76033946    -0.15300
C377        C  0.09593348  0.76189550  0.77584651    -0.29100
C378        C  0.02485242  0.72000795  0.69168079    -0.03400
C379        C  0.00324099  0.72473936  0.68631653    -0.39900
H380        H  0.04919132  0.69858813  0.71652224     0.12800
H381        H  0.07806943  0.72134637  0.74552278     0.12500
H382        H  0.07206166  0.79834903  0.73411018     0.11900
H383        H  0.04367933  0.77570524  0.70487736     0.12100
H384        H  0.10374020  0.79945986  0.76088462     0.14900
H385        H  0.08493454  0.73852670  0.77596168     0.13700
H386        H  0.02739414  0.70313474  0.68446665     0.11300
H387        H  0.99923587  0.73987677  0.69459277     0.13400
C388        C  0.30560029  0.92647014  0.94764025     0.19400
C389        C  0.27847140  0.92434480  0.94563034    -0.18700
C390        C  0.26042989  0.90934667  0.92999506    -0.10900
C391        C  0.26903531  0.89584335  0.91592654     0.21700
C392        C  0.29628294  0.89823001  0.91778688    -0.20300
C393        C  0.31437282  0.91328776  0.93341667    -0.11100
C394        C  0.25080252  0.87987706  0.89883733    -0.15300
C395        C  0.22246524  0.87047695  0.89758154    -0.29100
C396        C  0.32392320  0.94319225  0.96451750    -0.03400
C397        C  0.34927209  0.94503110  0.96930781    -0.39900
H398        H  0.27120003  0.93451807  0.95617782     0.12800
H399        H  0.24007357  0.90896654  0.92892655     0.12500
H400        H  0.30364911  0.88836581  0.90707186     0.11900
H401        H  0.33517340  0.91463623  0.93400137     0.12100
H402        H  0.26114245  0.87516402  0.88690988     0.14900
H403        H  0.21132206  0.87393904  0.90950039     0.13700
H404        H  0.31591760  0.95450655  0.97356535     0.11300
H405        H  0.35786370  0.93373670  0.96091175     0.13400
C406        C  0.03577443  0.68131371  0.94696558     0.19400
C407        C  0.03545955  0.67240370  0.92770210    -0.18700
C408        C  0.04829246  0.69250474  0.91290912    -0.10900
C409        C  0.06236841  0.72229080  0.91707898     0.21700
C410        C  0.06185454  0.73121379  0.93627477    -0.20300
C411        C  0.04878827  0.71102634  0.95108464    -0.11100
C412        C  0.07870111  0.74465772  0.90219006    -0.15300
C413        C  0.08566731  0.73869692  0.88461635    -0.29100
C414        C  0.02402273  0.65885258  0.96228443    -0.03400
C415        C  0.01646201  0.66273906  0.98024180    -0.39900
H416        H  0.02545205  0.64966214  0.92407813     0.12800
H417        H  0.04714819  0.68429414  0.89837083     0.12500
H418        H  0.07235352  0.75394350  0.93996384     0.11900
H419        H  0.04990498  0.71885538  0.96576599     0.12100
H420        H  0.08686312  0.76709010  0.90634984     0.14900
H421        H  0.07866347  0.71665906  0.88020039     0.13700
H422        H  0.02123358  0.63775327  0.95838630     0.11300
H423        H  0.01751622  0.68302246  0.98428966     0.13400
C424        C  0.27121742  0.69985006  0.82878314     0.19400
C425        C  0.24276995  0.68898907  0.83470519    -0.18700
C426        C  0.23045481  0.70705049  0.83617868    -0.10900
C427        C  0.24629847  0.73653361  0.83158172     0.21700
C428        C  0.27466904  0.74738421  0.82564864    -0.20300
C429        C  0.28690145  0.72933860  0.82403449    -0.11100
C430        C  0.23432404  0.75675708  0.83312703    -0.15300
C431        C  0.20618344  0.74818307  0.83186470    -0.29100
C432        C  0.28355499  0.67979384  0.82749202    -0.03400
C433        C  0.31184071  0.68904157  0.82652668    -0.39900
H434        H  0.23008150  0.66646066  0.83842847     0.12800
H435        H  0.20873747  0.69788255  0.84128267     0.12500
H436        H  0.28736499  0.76992903  0.82195809     0.11900
H437        H  0.30850986  0.73876579  0.81875482     0.12100
H438        H  0.24931106  0.77962639  0.83461402     0.14900
H439        H  0.19106654  0.72559055  0.82941149     0.13700
H440        H  0.26893192  0.65674702  0.82765434     0.11300
H441        H  0.32678830  0.71191366  0.82700267     0.13400
C442        C  0.08610485  0.90653742  0.85193094     0.19400
C443        C  0.06103255  0.90025852  0.86197417    -0.18700
C444        C  0.04877200  0.91834558  0.86046841    -0.10900
C445        C  0.06164854  0.94342140  0.84907767     0.21700
C446        C  0.08738292  0.95030459  0.83971823    -0.20300
C447        C  0.09940250  0.93201748  0.84099702    -0.11100
C448        C  0.04920173  0.96312017  0.84694910    -0.15300
C449        C  0.02094417  0.95401755  0.84788956    -0.29100
C450        C  0.09820766  0.88648228  0.85330444    -0.03400
C451        C  0.11165709  0.88199763  0.83831733    -0.39900
H452        H  0.05065155  0.88104697  0.87076708     0.12800
H453        H  0.02945613  0.91281647  0.86843742     0.12500
H454        H  0.09803295  0.96972444  0.83114704     0.11900
H455        H  0.11926976  0.93803354  0.83359255     0.12100
H456        H  0.06362462  0.98549554  0.84340772     0.14900
H457        H  0.00617359  0.93133377  0.85013381     0.13700
H458        H  0.09469405  0.87409338  0.86652726     0.11300
H459        H  0.11334842  0.89287881  0.82464141     0.13400
C460        C  0.18353576  0.09071438  0.16359681     0.19400
C461        C  0.16680724  0.09598273  0.17692027    -0.18700
C462        C  0.13700460  0.07922737  0.17665639    -0.10900
C463        C  0.12324848  0.05655632  0.16311363     0.21700
C464        C  0.14000287  0.05087126  0.15007742    -0.20300
C465        C  0.16979958  0.06781464  0.15021284    -0.11100
C466        C  0.09166870  0.03779269  0.16268331    -0.15300
C467        C  0.07333122  0.04695574  0.16831116    -0.29100
C468        C  0.21521357  0.10844503  0.16484438    -0.03400
C469        C  0.23275457  0.11252342  0.14980680    -0.39900
H470        H  0.17685810  0.11312747  0.18761580     0.12800
H471        H  0.12492058  0.08367890  0.18737052     0.12500
H472        H  0.12997926  0.03325251  0.13971747     0.11900
H473        H  0.18196337  0.06241570  0.14015373     0.12100
H474        H  0.08326147  0.01613059  0.15677819     0.14900
H475        H  0.08142532  0.06913660  0.17301705     0.13700
H476        H  0.22438386  0.11902010  0.17865912     0.11300
H477        H  0.22394605  0.10345816  0.13561065     0.13400
C478        C  0.36961764  0.04153244  0.05375119     0.19400
C479        C  0.38612497  0.05423268  0.07052393    -0.18700
C480        C  0.37942627  0.07076301  0.08309919    -0.10900
C481        C  0.35568341  0.07485896  0.07935472     0.21700
C482        C  0.33929610  0.06244397  0.06246594    -0.20300
C483        C  0.34608738  0.04593030  0.04979126    -0.11100
C484        C  0.34822228  0.09287077  0.09227272    -0.15300
C485        C  0.35735451  0.09903855  0.11085070    -0.29100
C486        C  0.37857465  0.02482860  0.04075372    -0.03400
C487        C  0.36337956  0.00874179  0.02538624    -0.39900
H488        H  0.40457920  0.05160971  0.07385917     0.12800
H489        H  0.39347388  0.08078004  0.09543141     0.12500
H490        H  0.32117274  0.06557602  0.05903853     0.11900
H491        H  0.33302475  0.03714964  0.03688336     0.12100
H492        H  0.33480465  0.10122738  0.08632835     0.14900
H493        H  0.36977692  0.08992885  0.11725688     0.13700
H494        H  0.39884573  0.02568289  0.04421296     0.11300
H495        H  0.34279384  0.00677638  0.02164543     0.13400
C496        C  0.37124291  0.28327986  0.08136927     0.19400
C497        C  0.38820371  0.31319493  0.08391734    -0.18700
C498        C  0.39236567  0.33219380  0.06866459    -0.10900
C499        C  0.37985539  0.32178576  0.05024438     0.21700
C500        C  0.36225005  0.29196421  0.04775904    -0.20300
C501        C  0.35810821  0.27286834  0.06304643    -0.11100
C502        C  0.38485369  0.34154292  0.03348981    -0.15300
C503        C  0.40921455  0.36673186  0.03179594    -0.29100
C504        C  0.36857832  0.26419593  0.09814758    -0.03400
C505        C  0.35119256  0.23542688  0.09855575    -0.39900
H506        H  0.39839482  0.32199783  0.09782906     0.12800
H507        H  0.40523129  0.35506431  0.07146330     0.12500
H508        H  0.35215774  0.28334352  0.03379723     0.11900
H509        H  0.34496459  0.25010017  0.06019139     0.12100
H510        H  0.36886301  0.33463039  0.02194550     0.14900
H511        H  0.42593197  0.37267417  0.04271530     0.13700
H512        H  0.38172899  0.27452484  0.11092352     0.11300
H513        H  0.33741237  0.22432214  0.08625884     0.13400
C514        C  0.30769734  0.06927525  0.24375837     0.19400
C515        C  0.30723199  0.07293892  0.26394874    -0.18700
C516        C  0.30148662  0.05003003  0.27655232    -0.10900
C517        C  0.29547709  0.02290968  0.26905972     0.21700
C518        C  0.29520591  0.01916452  0.24886217    -0.20300
C519        C  0.30145448  0.04208979  0.23635349    -0.11100
C520        C  0.28790431  0.99754312  0.28160918    -0.15300
C521        C  0.29800062  0.99912807  0.29983130    -0.29100
C522        C  0.31386769  0.09353883  0.23041004    -0.03400
C523        C  0.32961476  0.09767569  0.21440504    -0.39900
H524        H  0.31157952  0.09358837  0.26995194     0.12800
H525        H  0.30109650  0.05338634  0.29204855     0.12500
H526        H  0.29022015  0.99839243  0.24272451     0.11900
H527        H  0.30084439  0.03836310  0.22082810     0.12100
H528        H  0.27457439  0.97646271  0.27506779     0.14900
H529        H  0.31289185  0.01986566  0.30617362     0.13700
H530        H  0.30577102  0.10825371  0.23389297     0.11300
H531        H  0.33938929  0.08412764  0.21192371     0.13400
C532        C  0.30445149  0.28476668  0.26357755     0.19400
C533        C  0.33156585  0.29367359  0.25566074    -0.18700
C534        C  0.33532696  0.27773776  0.24078337    -0.10900
C535        C  0.31196245  0.25228040  0.23360402     0.21700
C536        C  0.28489898  0.24330304  0.24162001    -0.20300
C537        C  0.28110907  0.25932588  0.25637279    -0.11100
C538        C  0.31507176  0.23344236  0.21879022    -0.15300
C539        C  0.33694128  0.24231834  0.20623923    -0.29100
C540        C  0.30159914  0.30148074  0.28006249    -0.03400
C541        C  0.27697378  0.30130155  0.28439673    -0.39900
H542        H  0.34997986  0.31293921  0.26112913     0.12800
H543        H  0.35667554  0.28499457  0.23543144     0.12500
H544        H  0.26660573  0.22356919  0.23659269     0.11900
H545        H  0.26003883  0.25116056  0.26247728     0.12100
H546        H  0.29816911  0.21116097  0.21803857     0.14900
H547        H  0.35333855  0.26475733  0.20593153     0.13700
H548        H  0.32062660  0.31478629  0.28871925     0.11300
H549        H  0.25823992  0.28953904  0.27518011     0.13400
C550        C  0.56694156  0.28322188  0.16607783     0.19400
C551        C  0.54909618  0.25330795  0.16718438    -0.18700
C552        C  0.51932472  0.24124701  0.16613406    -0.10900
C553        C  0.50645639  0.25889897  0.16402420     0.21700
C554        C  0.52431248  0.28877494  0.16250453    -0.20300
C555        C  0.55412098  0.30083953  0.16348926    -0.11100
C556        C  0.47476212  0.24703434  0.16257392    -0.15300
C557        C  0.45571258  0.22007483  0.16787906    -0.29100
C558        C  0.59861725  0.29484523  0.16713651    -0.03400
C559        C  0.61756692  0.32281406  0.17034073    -0.39900
H560        H  0.55824380  0.23910371  0.16883216     0.12800
H561        H  0.50674682  0.21805531  0.16661776     0.12500
H562        H  0.51515310  0.30290762  0.16050047     0.11900
H563        H  0.56680672  0.32389128  0.16187183     0.12100
H564        H  0.46685184  0.26101042  0.15690790     0.14900
H565        H  0.46304023  0.20595529  0.17399931     0.13700
H566        H  0.60659725  0.27958231  0.16559018     0.11300
H567        H  0.61016212  0.33835391  0.17255720     0.13400
C568        C  0.33840297  0.20218371  0.68972888     0.19400
C569        C  0.31797050  0.17644514  0.69826145    -0.18700
C570        C  0.31928528  0.15078257  0.69589056    -0.10900
C571        C  0.34144667  0.15037356  0.68512048     0.21700
C572        C  0.36212012  0.17625616  0.67692352    -0.20300
C573        C  0.36079543  0.20183252  0.67928662    -0.11100
C574        C  0.34335321  0.12348969  0.68145822    -0.15300
C575        C  0.33023821  0.09954721  0.69234014    -0.29100
C576        C  0.33602994  0.22903909  0.69202687    -0.03400
C577        C  0.34639189  0.25030302  0.67878002    -0.39900
H578        H  0.30055283  0.17604699  0.70644036     0.12800
H579        H  0.30250377  0.13131796  0.70213776     0.12500
H580        H  0.37951156  0.17673568  0.66866553     0.11900
H581        H  0.37757465  0.22132945  0.67304693     0.12100
H582        H  0.35662933  0.12369757  0.66951663     0.14900
H583        H  0.31792728  0.09931715  0.70484878     0.13700
H584        H  0.32454694  0.23080881  0.70445590     0.11300
H585        H  0.35623204  0.24771115  0.66574051     0.13400
C586        C  0.09895451  0.15996849  0.84473599     0.19400
C587        C  0.08148865  0.14354992  0.82915644    -0.18700
C588        C  0.06798551  0.11344658  0.82946348    -0.10900
C589        C  0.07182133  0.09897115  0.84535260     0.21700
C590        C  0.09018942  0.11530768  0.86059256    -0.20300
C591        C  0.10352275  0.14550067  0.86038464    -0.11100
C592        C  0.05664244  0.06693133  0.84634047    -0.15300
C593        C  0.02975899  0.05118254  0.83953559    -0.29100
C594        C  0.11243149  0.19198946  0.84373377    -0.03400
C595        C  0.12234490  0.20971518  0.85932017    -0.39900
H596        H  0.07799246  0.15406359  0.81675485     0.12800
H597        H  0.05466826  0.10153208  0.81718408     0.12500
H598        H  0.09379814  0.10466093  0.87286541     0.11900
H599        H  0.11756807  0.15729169  0.87237897     0.12100
H600        H  0.06679871  0.05635049  0.85404101     0.14900
H601        H  0.01879981  0.06212477  0.83344954     0.13700
H602        H  0.11331129  0.20129423  0.82952755     0.11300
H603        H  0.12074559  0.20096426  0.87376848     0.13400
C604        C  0.07130622  0.32894731  0.77467507     0.19400
C605        C  0.04542775  0.32973430  0.77475488    -0.18700
C606        C  0.03223204  0.33064661  0.75725855    -0.10900
C607        C  0.04501670  0.33144042  0.73928677     0.21700
C608        C  0.07143193  0.33178128  0.73925437    -0.20300
C609        C  0.08432368  0.33026664  0.75671613    -0.11100
C610        C  0.03118760  0.33170733  0.72042214    -0.15300
C611        C  0.00273982  0.31629700  0.71768430    -0.29100
C612        C  0.08502146  0.32807502  0.79345057    -0.03400
C613        C  0.10004378  0.31384275  0.79537136    -0.39900
H614        H  0.03521800  0.32926427  0.78838438     0.12800
H615        H  0.01219912  0.33106351  0.75781900     0.12500
H616        H  0.08188122  0.33270619  0.72564613     0.11900
H617        H  0.10472735  0.33062521  0.75615137     0.12100
H618        H  0.04474138  0.34244675  0.70810766     0.14900
H619        H  0.98952855  0.30329851  0.72953278     0.13700
H620        H  0.08235273  0.33904172  0.80597581     0.11300
H621        H  0.10118744  0.30148162  0.78312026     0.13400
C622        C  0.29913805  0.30985237  0.74659944     0.19400
C623        C  0.27900386  0.28787536  0.75829539    -0.18700
C624        C  0.26624590  0.29425662  0.77387419    -0.10900
C625        C  0.27337119  0.32295126  0.77827093     0.21700
C626        C  0.29445038  0.34508102  0.76714534    -0.20300
C627        C  0.30712336  0.33867435  0.75143539    -0.11100
C628        C  0.25914040  0.33018875  0.79434092    -0.15300
C629        C  0.23191998  0.31219262  0.79935955    -0.29100
C630        C  0.31144709  0.30170427  0.72977901    -0.03400
C631        C  0.32293653  0.31855188  0.71413996    -0.39900
H632        H  0.27280954  0.26554805  0.75521669     0.12800
H633        H  0.25095715  0.27660816  0.78253719     0.12500
H634        H  0.30077808  0.36738860  0.77040528     0.11900
H635        H  0.32329639  0.35637697  0.74328779     0.12100
H636        H  0.27063806  0.35115628  0.80139749     0.14900
H637        H  0.21990990  0.29218445  0.79127490     0.13700
H638        H  0.30962705  0.28037703  0.72985241     0.11300
H639        H  0.32366425  0.33933615  0.71340081     0.13400
C640        C  0.33627997  0.37419798  0.95293409     0.19400
C641        C  0.30911193  0.34966003  0.95313144    -0.18700
C642        C  0.28876345  0.34472809  0.93852212    -0.10900
C643        C  0.29490194  0.36441455  0.92318332     0.21700
C644        C  0.32210727  0.38891679  0.92293164    -0.20300
C645        C  0.34250776  0.39382496  0.93753705    -0.11100
C646        C  0.27407198  0.36005195  0.90699893    -0.15300
C647        C  0.24614336  0.34002620  0.90716133    -0.29100
C648        C  0.35715127  0.37792874  0.96893320    -0.03400
C649        C  0.38370007  0.40064078  0.97084072    -0.39900
H650        H  0.30358247  0.33399443  0.96463709     0.12800
H651        H  0.26853670  0.32516441  0.93932783     0.12500
H652        H  0.32767406  0.40443078  0.91132504     0.11900
H653        H  0.36301605  0.41298817  0.93645883     0.12100
H654        H  0.28202378  0.37422953  0.89454339     0.14900
H655        H  0.23740052  0.32620439  0.91964131     0.13700
H656        H  0.35022100  0.36097115  0.97970777     0.11300
H657        H  0.39139134  0.41801745  0.96045026     0.13400
C658        C  0.24657520  0.48398002  0.83943656     0.19400
C659        C  0.27611455  0.50238834  0.84108052    -0.18700
C660        C  0.28768175  0.53217605  0.83908518    -0.10900
C661        C  0.27001063  0.54446471  0.83493024     0.21700
C662        C  0.24039045  0.52612252  0.83346658    -0.20300
C663        C  0.22875289  0.49620256  0.83555212    -0.11100
C664        C  0.28198880  0.57624329  0.83235577    -0.15300
C665        C  0.30890999  0.59303676  0.82631577    -0.29100
C666        C  0.23560546  0.45233071  0.84155902    -0.03400
C667        C  0.20830972  0.43329993  0.84567743    -0.39900
H668        H  0.29036877  0.49370301  0.84416661     0.12800
H669        H  0.31048978  0.54544020  0.84114557     0.12500
H670        H  0.22624428  0.53492596  0.83037480     0.11900
H671        H  0.20592160  0.48285898  0.83373866     0.12100
H672        H  0.26841627  0.58582005  0.83521440     0.14900
H673        H  0.32189527  0.58314342  0.82257931     0.13700
H674        H  0.25094837  0.44451309  0.84025243     0.11300
H675        H  0.19277794  0.44065912  0.84771935     0.13400
C676        C  0.60706350  0.23974817  0.48057600     0.19400
C677        C  0.57831689  0.22585110  0.48622363    -0.18700
C678        C  0.56291561  0.19576759  0.48776747    -0.10900
C679        C  0.57592320  0.17880079  0.48344810     0.21700
C680        C  0.60447223  0.19270386  0.47739575    -0.20300
C681        C  0.61980922  0.22270202  0.47582189    -0.11100
C682        C  0.56124752  0.14685974  0.48577838    -0.15300
C683        C  0.53286400  0.13005535  0.48805055    -0.29100
C684        C  0.62300823  0.27189810  0.47983816    -0.03400
C685        C  0.65171957  0.28727749  0.48097568    -0.39900
H686        H  0.56788726  0.23837555  0.48987433     0.12800
H687        H  0.54115806  0.18618436  0.49279348     0.12500
H688        H  0.61504391  0.18026873  0.47386377     0.11900
H689        H  0.64153799  0.23225960  0.47071620     0.12100
H690        H  0.57467017  0.13666304  0.48560730     0.14900
H691        H  0.51867316  0.13929369  0.48774949     0.13700
H692        H  0.61068200  0.28325340  0.47925136     0.11300
H693        H  0.66426906  0.27632065  0.48258459     0.13400
C694        C  0.38941465  0.05226980  0.62279668     0.19400
C695        C  0.39094265  0.06385226  0.60424773    -0.18700
C696        C  0.40378861  0.05709689  0.58883733    -0.10900
C697        C  0.41559987  0.03860047  0.59168189     0.21700
C698        C  0.41487129  0.02786602  0.61041840    -0.20300
C699        C  0.40204645  0.03459365  0.62576453    -0.11100
C700        C  0.42973923  0.03066664  0.57590866    -0.15300
C701        C  0.42749310  0.03497870  0.55682447    -0.29100
C702        C  0.37472058  0.05894866  0.63880851    -0.03400
C703        C  0.36169389  0.04027281  0.65330805    -0.39900
H704        H  0.38184609  0.07790703  0.60160456     0.12800
H705        H  0.40461125  0.06676550  0.57489550     0.12500
H706        H  0.42425490  0.01410363  0.61322562     0.11900
H707        H  0.40241503  0.02614286  0.63999462     0.12100
H708        H  0.44258985  0.02077740  0.58024796     0.14900
H709        H  0.41453841  0.04443007  0.55199467     0.13700
H710        H  0.37337656  0.07873902  0.63813593     0.11300
H711        H  0.36139937  0.01965060  0.65312427     0.13400
C712        C  0.35202399  0.97777985  0.38182497     0.19400
C713        C  0.36572126  0.00382080  0.39232682    -0.18700
C714        C  0.38239903  0.00653997  0.40882346    -0.10900
C715        C  0.38592160  0.98320029  0.41516466     0.21700
C716        C  0.37264025  0.95732158  0.40446516    -0.20300
C717        C  0.35581570  0.95454339  0.38803803    -0.11100
C718        C  0.40451321  0.98550226  0.43211322    -0.15300
C719        C  0.41107425  0.00477105  0.44671971    -0.29100
C720        C  0.33520216  0.97621036  0.36401450    -0.03400
C721        C  0.31453982  0.95136453  0.35628218    -0.39900
H722        H  0.36360115  0.02222369  0.38769684     0.12800
H723        H  0.39304596  0.02718285  0.41620327     0.12500
H724        H  0.37540068  0.93917245  0.40879077     0.11900
H725        H  0.34649363  0.93441365  0.38002495     0.12100
H726        H  0.41284991  0.97043683  0.43266107     0.14900
H727        H  0.40191723  0.01910904  0.44692506     0.13700
H728        H  0.33960069  0.99644902  0.35729042     0.11300
H729        H  0.30876784  0.93104129  0.36334891     0.13400
C730        C  0.38780697  0.79701276  0.52559484     0.19400
C731        C  0.37499821  0.81296685  0.51852830    -0.18700
C732        C  0.38973929  0.84319298  0.51882704    -0.10900
C733        C  0.41772097  0.85843938  0.52647052     0.21700
C734        C  0.43026913  0.84254235  0.53411491    -0.20300
C735        C  0.41564114  0.81221065  0.53355151    -0.11100
C736        C  0.43399389  0.89076626  0.52673377    -0.15300
C737        C  0.43106379  0.90661453  0.51248249    -0.29100
C738        C  0.37095229  0.76473120  0.52498241    -0.03400
C739        C  0.38258180  0.74704640  0.52459260    -0.39900
H740        H  0.35346334  0.80196339  0.51259160     0.12800
H741        H  0.37898199  0.85457401  0.51331273     0.12500
H742        H  0.45163168  0.85364436  0.54031944     0.11900
H743        H  0.42600382  0.80080041  0.53965121     0.12100
H744        H  0.45004965  0.90157270  0.53803546     0.14900
H745        H  0.41692905  0.89550423  0.50027369     0.13700
H746        H  0.34785426  0.75518419  0.52379763     0.11300
H747        H  0.40565306  0.75620701  0.52458717     0.13400
C748        C  0.15381905  0.78902016  0.30599500     0.19400
C749        C  0.15586615  0.81470759  0.29885409    -0.18700
C750        C  0.18071271  0.84109074  0.30198867    -0.10900
C751        C  0.20424714  0.84224540  0.31218359     0.21700
C752        C  0.20266526  0.81637262  0.31845232    -0.20300
C753        C  0.17795829  0.79005738  0.31521618    -0.11100
C754        C  0.22989261  0.86988526  0.31777249    -0.15300
C755        C  0.23759684  0.89510737  0.30885671    -0.29100
C756        C  0.12593534  0.76184103  0.30457529    -0.03400
C757        C  0.11849870  0.74084810  0.31778714    -0.39900
H758        H  0.13773270  0.81453430  0.29157127     0.12800
H759        H  0.18077502  0.86049846  0.29714121     0.12500
H760        H  0.22052273  0.81654388  0.32614722     0.11900
H761        H  0.17783628  0.77065999  0.32018666     0.12100
H762        H  0.24293957  0.86936826  0.32981253     0.14900
H763        H  0.22577959  0.89589276  0.29618811     0.13700
H764        H  0.11050064  0.76005808  0.29352741     0.11300
H765        H  0.13326959  0.74347417  0.32952486     0.13400
C766        C  0.94583846  0.90171988  0.16062059     0.19400
C767        C  0.91985251  0.88487369  0.17006746    -0.18700
C768        C  0.90602996  0.85484906  0.16862377    -0.10900
C769        C  0.91775565  0.84093968  0.15747696     0.21700
C770        C  0.94323558  0.85772730  0.14745606    -0.20300
C771        C  0.95732496  0.88786001  0.14911180    -0.11100
C772        C  0.90348414  0.80900146  0.15605620    -0.15300
C773        C  0.89033248  0.79233004  0.17140601    -0.29100
C774        C  0.95963792  0.93358384  0.16276460    -0.03400
C775        C  0.98786495  0.95144163  0.16078256    -0.39900
H776        H  0.91030708  0.89499066  0.17876732     0.12800
H777        H  0.88596743  0.84254772  0.17606386     0.12500
H778        H  0.95245145  0.84748049  0.13856833     0.11900
H779        H  0.97686464  0.90015128  0.14113936     0.12100
H780        H  0.90513189  0.79915158  0.14259919     0.14900
H781        H  0.89095132  0.80239686  0.18531016     0.13700
H782        H  0.94605167  0.94253616  0.16719957     0.11300
H783        H  0.00210229  0.94284883  0.15742019     0.13400
C784        C  0.95409476  0.64710111  0.06682362     0.19400
C785        C  0.95719654  0.67383623  0.07275010    -0.18700
C786        C  0.94300454  0.67605790  0.08912853    -0.10900
C787        C  0.92496947  0.65140902  0.09988835     0.21700
C788        C  0.92239299  0.62478625  0.09428109    -0.20300
C789        C  0.93653510  0.62253456  0.07786836    -0.11100
C790        C  0.90833210  0.65263409  0.11681805    -0.15300
C791        C  0.89992522  0.67272348  0.11849812    -0.29100
C792        C  0.96847915  0.64567302  0.04865480    -0.03400
C793        C  0.97273309  0.62336032  0.04397940    -0.39900
H794        H  0.97063303  0.69312878  0.06463580     0.12800
H795        H  0.94637345  0.69716570  0.09332281     0.12500
H796        H  0.90872368  0.60548559  0.10231281     0.11900
H797        H  0.93286086  0.60133942  0.07369319     0.12100
H798        H  0.90134585  0.63557493  0.12751359     0.14900
H799        H  0.90533554  0.68880036  0.10726115     0.13700
H800        H  0.97595506  0.66380847  0.03879745     0.11300
H801        H  0.96650832  0.60555589  0.05392707     0.13400
C802        C  0.73657599  0.68504543  0.24917381     0.19400
C803        C  0.70796084  0.66457397  0.25254868    -0.18700
C804        C  0.69234426  0.66903021  0.26712193    -0.10900
C805        C  0.70505842  0.69425997  0.27857969     0.21700
C806        C  0.73359293  0.71476822  0.27515163    -0.20300
C807        C  0.74922309  0.71027718  0.26066773    -0.11100
C808        C  0.68897427  0.70095960  0.29336510    -0.15300
C809        C  0.66546786  0.68100032  0.30238920    -0.29100
C810        C  0.75193969  0.68003814  0.23291767    -0.03400
C811        C  0.78062445  0.69349561  0.23148720    -0.39900
H812        H  0.69755635  0.64516157  0.24374671     0.12800
H813        H  0.67016038  0.65309398  0.26893398     0.12500
H814        H  0.74377735  0.73456210  0.28359297     0.11900
H815        H  0.77086256  0.72709440  0.25821996     0.12100
H816        H  0.69751945  0.72349496  0.29741416     0.14900
H817        H  0.65752071  0.65822529  0.29956195     0.13700
H818        H  0.73909176  0.66436721  0.22183036     0.11300
H819        H  0.79396223  0.70812866  0.24285038     0.13400
C820        C  0.95002492  0.67481445  0.23952510     0.19400
C821        C  0.95145724  0.65204811  0.24891444    -0.18700
C822        C  0.97393531  0.65749254  0.26189974    -0.10900
C823        C  0.99571772  0.68592998  0.26557652     0.21700
C824        C  0.99475259  0.70852587  0.25562117    -0.20300
C825        C  0.97218391  0.70311502  0.24283392    -0.12300
C826        C  0.02013429  0.69297779  0.27921688    -0.15300
C827        C  0.01902327  0.67603433  0.29412014    -0.29100
C828        C  0.92577112  0.66861248  0.22594840    -0.03400
C829        C  0.91547904  0.68714232  0.22360748    -0.39900
H830        H  0.93497097  0.63001272  0.24635093     0.12800
H831        H  0.97435371  0.63935382  0.26874228     0.12500
H832        H  0.01145490  0.73055743  0.25786639     0.11900
H833        H  0.97239773  0.72113317  0.23532678     0.12100
H834        H  0.03932727  0.71359295  0.27741760     0.14900
H835        H  0.99954702  0.65604046  0.29672866     0.13700
H836        H  0.91568325  0.64810888  0.21821848     0.11300
H837        H  0.92433976  0.70670403  0.23236043     0.13400
C838        C  0.72471887  0.45711536  0.17949359     0.19400
C839        C  0.71462827  0.47605753  0.17396591    -0.18700
C840        C  0.73280841  0.50584659  0.17420762    -0.10900
C841        C  0.76153228  0.51743204  0.18030051     0.21700
C842        C  0.77151851  0.49852449  0.18610597    -0.20300
C843        C  0.75331295  0.46872630  0.18591086    -0.11100
C844        C  0.78183800  0.54892516  0.17998641    -0.15300
C845        C  0.77319244  0.56881093  0.18132445    -0.29100
C846        C  0.70490316  0.42552541  0.17821211    -0.03400
C847        C  0.71411037  0.40609710  0.17649417    -0.39900
H848        H  0.69274658  0.46774524  0.16897989     0.12800
H849        H  0.72440749  0.51955866  0.16906572     0.12500
H850        H  0.79348404  0.50685902  0.19090305     0.11900
H851        H  0.76177769  0.45502671  0.19094789     0.12100
H852        H  0.80451143  0.55588941  0.17876615     0.14900
H853        H  0.75076083  0.56209482  0.18352683     0.13700
H854        H  0.68207605  0.41817708  0.17767821     0.11300
H855        H  0.73682325  0.41317447  0.17605233     0.13400
C856        C  0.23941296  0.61662242  0.51996489     0.19400
C857        C  0.22330336  0.59418580  0.50675054    -0.18700
C858        C  0.19335688  0.57988841  0.50701386    -0.10900
C859        C  0.17865787  0.58746252  0.52071955     0.21700
C860        C  0.19477010  0.60949063  0.53423270    -0.20300
C861        C  0.22477583  0.62406791  0.53380512    -0.11100
C862        C  0.14672165  0.57214892  0.52174894    -0.15300
C863        C  0.12950663  0.55944568  0.50621742    -0.29100
C864        C  0.27129936  0.63082378  0.51928912    -0.03400
C865        C  0.28882587  0.65820200  0.52513610    -0.39900
H866        H  0.23396397  0.58769898  0.49611047     0.12800
H867        H  0.18185807  0.56247741  0.49673960     0.12500
H868        H  0.18408364  0.61551761  0.54513706     0.11900
H869        H  0.23639412  0.64066915  0.54458474     0.12100
H870        H  0.13711056  0.57244918  0.53554283     0.14900
H871        H  0.13887361  0.56085662  0.49205767     0.13700
H872        H  0.28063218  0.61868743  0.51268461     0.11300
H873        H  0.27980083  0.67131595  0.53051313     0.13400
C874        C  0.03334288  0.61704172  0.37747626     0.19400
C875        C  0.01115584  0.60935945  0.39082229    -0.18700
C876        C  0.01151057  0.59640130  0.40848187    -0.10900
C877        C  0.03399190  0.59060854  0.41296183     0.21700
C878        C  0.05540911  0.59709525  0.39919117    -0.20300
C879        C  0.05516803  0.61019722  0.38167510    -0.11100
C880        C  0.03519510  0.57642582  0.43126580    -0.15300
C881        C  0.02259577  0.57735939  0.44792844    -0.29100
C882        C  0.03392493  0.63296313  0.35957760    -0.03400
C883        C  0.05878930  0.65334039  0.35238732    -0.39900
H884        H  0.99388009  0.61399646  0.38777146     0.12800
H885        H  0.99403437  0.59067450  0.41841983     0.12500
H886        H  0.07259024  0.59224716  0.40207819     0.11900
H887        H  0.07208181  0.61488780  0.37141602     0.12100
H888        H  0.04738064  0.56490820  0.43099310     0.14900
H889        H  0.01116542  0.58956255  0.44878855     0.13700
H890        H  0.01386345  0.62970854  0.35327140     0.11300
H891        H  0.07863835  0.65821376  0.35983571     0.13400
C892        C  0.00859544  0.41474948  0.59022799     0.19400
C893        C  0.01841123  0.42285951  0.60945678    -0.18700
C894        C  0.01116075  0.40208842  0.62407006    -0.10900
C895        C  0.99405845  0.37254792  0.61972100     0.21700
C896        C  0.98488067  0.36445572  0.60041231    -0.20300
C897        C  0.99220306  0.38514937  0.58583165    -0.11100
C898        C  0.98393776  0.34957892  0.63484912    -0.15300
C899        C  0.99621777  0.35255815  0.65253967    -0.29100
C900        C  0.01578944  0.43760014  0.57521911    -0.03400
C901        C  0.00046272  0.43329286  0.55866800    -0.39900
H902        H  0.03120128  0.44543223  0.61329515     0.12800
H903        H  0.01831969  0.40940319  0.63877900     0.12500
H904        H  0.97186185  0.34191348  0.59656395     0.11900
H905        H  0.98502650  0.37768815  0.57115251     0.12100
H906        H  0.96555014  0.32901413  0.63106065     0.14900
H907        H  0.01539372  0.37235379  0.65637606     0.13700
H908        H  0.03344933  0.45896401  0.57830763     0.11300
H909        H  0.98186052  0.41253020  0.55586082     0.13400
C910        C  0.00057826  0.64432257  0.60890168     0.19400
C911        C  0.01749622  0.63095713  0.61137339    -0.18700
C912        C  0.02077864  0.61523949  0.59613385    -0.10900
C913        C  0.00740590  0.61290351  0.57793352     0.21700
C914        C  0.99127546  0.62713130  0.57537559    -0.20300
C915        C  0.98797407  0.64272642  0.59058141    -0.11100
C916        C  0.00873972  0.59541100  0.56134668    -0.15300
C917        C  0.02369699  0.58099586  0.56141859    -0.29100
C918        C  0.99653874  0.66000222  0.62549964    -0.03400
C919        C  0.97255682  0.66203737  0.62734248    -0.39900
H920        H  0.02769901  0.63215427  0.62527586     0.12800
H921        H  0.03347719  0.60481113  0.59894629     0.12500
H922        H  0.98097343  0.62605539  0.56153169     0.11900
H923        H  0.97569782  0.65368913  0.58784632     0.12100
H924        H  0.99608108  0.59379046  0.54847951     0.14900
H925        H  0.03671553  0.58204362  0.57385604     0.13700
H926        H  0.01315792  0.66926937  0.63662220     0.11300
H927        H  0.95527663  0.65129196  0.61682915     0.13400
C928        C  0.79465630  0.41270989  0.49019238     0.19400
C929        C  0.81399614  0.44135412  0.48536402    -0.18700
C930        C  0.84360514  0.45220932  0.48753486    -0.10900
C931        C  0.85460800  0.43465772  0.49481195     0.21700
C932        C  0.83527972  0.40612043  0.49972713    -0.20300
C933        C  0.80576505  0.39534786  0.49767769    -0.11100
C934        C  0.88591037  0.44484519  0.49706331    -0.15300
C935        C  0.90584368  0.47276410  0.49909463    -0.29100
C936        C  0.76318914  0.40175448  0.48753726    -0.03400
C937        C  0.74423465  0.37347686  0.48576263    -0.39900
H938        H  0.80618232  0.45529324  0.47962344     0.12800
H939        H  0.85770569  0.47412870  0.48312900     0.12500
H940        H  0.84305095  0.39211997  0.50542918     0.11900
H941        H  0.79186615  0.37351099  0.50230189     0.12100
H942        H  0.89267033  0.42854115  0.49772909     0.14900
H943        H  0.89940403  0.48928347  0.49933515     0.13700
H944        H  0.75557421  0.41736338  0.48653181     0.11300
H945        H  0.75185060  0.35787595  0.48579674     0.13400
C946        C  0.51700619  0.50432593  0.99081383     0.19400
C947        C  0.52128385  0.52977232  0.98172336    -0.18700
C948        C  0.54773662  0.55496957  0.98298107    -0.10900
C949        C  0.57083896  0.55526744  0.99319987     0.21700
C950        C  0.56666451  0.52977583  0.00216102    -0.20300
C951        C  0.54020646  0.50454078  0.00087372    -0.11100
C952        C  0.59914375  0.58189759  0.99531744    -0.15300
C953        C  0.60878308  0.60360976  0.98244492    -0.29100
C954        C  0.48817215  0.47818685  0.98938084    -0.03400
C955        C  0.47879964  0.45618687  0.00203068    -0.39900
H956        H  0.50388931  0.53032374  0.97389078     0.12800
H957        H  0.54969364  0.57427955  0.97630398     0.12500
H958        H  0.58404313  0.52931772  0.01007992     0.11900
H959        H  0.53825618  0.48528424  0.00761691     0.12100
H960        H  0.61274342  0.58328086  0.00755902     0.14900
H961        H  0.59610692  0.60167550  0.96956370     0.13700
H962        H  0.47366776  0.47771039  0.97804408     0.11300
H963        H  0.49245519  0.45694147  0.01401267     0.13400
C964        C  0.74989340  0.67227608  0.08449700     0.19400
C965        C  0.75973265  0.68807419  0.06727912    -0.18700
C966        C  0.74166887  0.68203074  0.05105914    -0.10900
C967        C  0.71301705  0.65988427  0.05159767     0.21700
C968        C  0.70325286  0.64381654  0.06874844    -0.20300
C969        C  0.72136492  0.64986981  0.08499829    -0.11100
C970        C  0.69305593  0.65219649  0.03448270    -0.15300
C971        C  0.69774144  0.66962400  0.01911210    -0.29100
C972        C  0.77057363  0.67895641  0.10103108    -0.03400
C973        C  0.76303890  0.67009558  0.11946588    -0.39900
H974        H  0.78167426  0.70511780  0.06629418     0.12800
H975        H  0.75065697  0.69444448  0.03807688     0.12500
H976        H  0.68149223  0.62635284  0.06956235     0.11900
H977        H  0.71298729  0.63646233  0.09766745     0.12100
H978        H  0.67356265  0.63156434  0.03470717     0.14900
H979        H  0.71645476  0.69076324  0.01890819     0.13700
H980        H  0.79316052  0.69179072  0.09779884     0.11300
H981        H  0.74066914  0.65788214  0.12325861     0.13400
C982        C  0.87752261  0.22102358  0.65894471     0.19400
C983        C  0.85309774  0.21828354  0.64921654    -0.18700
C984        C  0.82763397  0.19178089  0.64876425    -0.10900
C985        C  0.82628727  0.16733461  0.65785777     0.21700
C986        C  0.85109985  0.17001404  0.66692392    -0.20300
C987        C  0.87635787  0.19633685  0.66737868    -0.11100
C988        C  0.79974575  0.13880029  0.65897059    -0.15300
C989        C  0.77486318  0.13128272  0.64950301    -0.29100
C990        C  0.90394039  0.24965128  0.66034520    -0.03400
C991        C  0.92163229  0.25684494  0.67588633    -0.39900
H992        H  0.85349164  0.23687517  0.64241268     0.12800
H993        H  0.80912147  0.19085964  0.64163485     0.12500
H994        H  0.85094798  0.15160667  0.67384713     0.11900
H995        H  0.89499335  0.19720307  0.67433549     0.12100
H996        H  0.80097099  0.12283047  0.66821026     0.14900
H997        H  0.77282045  0.14621808  0.63975718     0.13700
H998        H  0.90824801  0.26529604  0.64892046     0.11300
H999        H  0.91606620  0.24180416  0.68784212     0.13400
C1000       C  0.64557776  0.06522953  0.60593332     0.19400
C1001       C  0.64716377  0.07902484  0.58825728    -0.18700
C1002       C  0.62295026  0.07019454  0.57634933    -0.10900
C1003       C  0.59631493  0.04707877  0.58178516     0.21700
C1004       C  0.59453596  0.03392794  0.59978592    -0.20300
C1005       C  0.61878247  0.04282855  0.61173327    -0.11100
C1006       C  0.56993278  0.03670885  0.56939160    -0.15300
C1007       C  0.57080178  0.04232788  0.55026912    -0.29100
C1008       C  0.67216272  0.07521673  0.61796044    -0.03400
C1009       C  0.67548796  0.05886412  0.63160144    -0.39900
H1010       H  0.66731757  0.09669160  0.58356299     0.12800
H1011       H  0.62534524  0.08199235  0.56309372     0.12500
H1012       H  0.57428936  0.01655784  0.60460605     0.11900
H1013       H  0.61621994  0.03229224  0.62557103     0.12100
H1014       H  0.54928909  0.02390790  0.57615061     0.14900
H1015       H  0.59126376  0.05432405  0.54321724     0.13700
H1016       H  0.69005995  0.09630836  0.61486729     0.11300
H1017       H  0.65835608  0.03722821  0.63424098     0.13400
C1018       C  0.86147109  0.68076554  0.64361422     0.19400
C1019       C  0.83666234  0.65648424  0.63682161    -0.18700
C1020       C  0.81005292  0.65550486  0.63772512    -0.10900
C1021       C  0.80788563  0.67911363  0.64522225     0.21700
C1022       C  0.83288302  0.70370016  0.65141970    -0.20300
C1023       C  0.85938474  0.70464177  0.65054216    -0.11100
C1024       C  0.78020617  0.67890673  0.64774078    -0.15300
C1025       C  0.75515719  0.65961160  0.63957268    -0.29100
C1026       C  0.88911329  0.68051174  0.64332020    -0.03400
C1027       C  0.91066229  0.69606104  0.65587034    -0.39900
H1028       H  0.83776976  0.63790168  0.63127918     0.12800
H1029       H  0.79137199  0.63597756  0.63301291     0.12500
H1030       H  0.83190619  0.72228998  0.65709536     0.11900
H1031       H  0.87813892  0.72416562  0.65523014     0.12100
H1032       H  0.78068039  0.69600529  0.65675890     0.14900
H1033       H  0.75393543  0.64290126  0.62986998     0.13700
H1034       H  0.89117585  0.66591593  0.63315015     0.11300
H1035       H  0.90826232  0.70941066  0.66687739     0.13400
C1036       C  0.88608899  0.92737149  0.83422322     0.19400
C1037       C  0.86973180  0.90500458  0.82105175    -0.18700
C1038       C  0.84024097  0.89467597  0.81908556    -0.10900
C1039       C  0.82648277  0.90623070  0.83056459     0.21700
C1040       C  0.84271275  0.92790753  0.84418147    -0.20300
C1041       C  0.87221348  0.93855025  0.84590965    -0.11100
C1042       C  0.79512977  0.89530576  0.82938541    -0.15300
C1043       C  0.77968812  0.88500580  0.81288493    -0.29100
C1044       C  0.91745288  0.93841377  0.83578615    -0.03400
C1045       C  0.93579932  0.96635835  0.83944725    -0.39900
H1046       H  0.87986450  0.89575379  0.81210143     0.12800
H1047       H  0.82820845  0.87730840  0.80887515     0.12500
H1048       H  0.83254245  0.93679690  0.85342593     0.11900
H1049       H  0.88404374  0.95519986  0.85662699     0.12100
H1050       H  0.78461533  0.89687141  0.84242983     0.14900
H1051       H  0.79023691  0.88501956  0.79946285     0.13700
H1052       H  0.92569022  0.92366156  0.83279525     0.11300
H1053       H  0.92767781  0.98151524  0.84082175     0.13400
C1054       C  0.68235902  0.72723545  0.69169153     0.19400
C1055       C  0.65644117  0.72200740  0.70003463    -0.18700
C1056       C  0.65597029  0.74004009  0.71472282    -0.10900
C1057       C  0.68151461  0.76383270  0.72125206     0.21700
C1058       C  0.70721572  0.76992103  0.71221811    -0.20300
C1059       C  0.70771744  0.75182400  0.69761425    -0.11100
C1060       C  0.68216675  0.78286485  0.73729941    -0.15300
C1061       C  0.66334964  0.77349106  0.75193365    -0.29100
C1062       C  0.68207568  0.70665564  0.67689291    -0.03400
C1063       C  0.70496736  0.70327764  0.67323107    -0.39900
H1064       H  0.63654243  0.70359043  0.69542668     0.12800
H1065       H  0.63560799  0.73536386  0.72084095     0.12500
H1066       H  0.72707438  0.78847543  0.71672385     0.11900
H1067       H  0.72797377  0.75734073  0.69098113     0.12100
H1068       H  0.69977132  0.80481879  0.73769960     0.14900
H1069       H  0.64662510  0.75116584  0.75231887     0.13700
H1070       H  0.66193091  0.69279417  0.66951013     0.11300
H1071       H  0.72489803  0.71597068  0.68110244     0.13400
C1072       C  0.70487186  0.98965661  0.69941216     0.19400
C1073       C  0.67829435  0.96888676  0.70648447    -0.18700
C1074       C  0.67648564  0.94895335  0.72042088    -0.10900
C1075       C  0.70132097  0.94918211  0.72760551     0.21700
C1076       C  0.72787977  0.96929703  0.72006928    -0.20300
C1077       C  0.72972228  0.98946624  0.70619546    -0.11100
C1078       C  0.69994020  0.92820370  0.74252108    -0.15300
C1079       C  0.67924152  0.91729320  0.75595959    -0.29100
C1080       C  0.70537667  0.01039752  0.68463575    -0.03400
C1081       C  0.72823669  0.03624036  0.68108277    -0.39900
H1082       H  0.65877288  0.96816800  0.70127746     0.12800
H1083       H  0.65552917  0.93310451  0.72528383     0.12500
H1084       H  0.74728323  0.96958602  0.72507818     0.11900
H1085       H  0.75053754  0.00448496  0.70065722     0.12100
H1086       H  0.71683556  0.92237769  0.74284948     0.14900
H1087       H  0.66341193  0.92453071  0.75647180     0.13700
H1088       H  0.68544177  0.00457634  0.67696566     0.11300
H1089       H  0.74803040  0.04317249  0.68915691     0.13400
C1090       C  0.67657188  0.75149897  0.89201084     0.19400
C1091       C  0.68798849  0.76176702  0.91065312    -0.18700
C1092       C  0.68470353  0.74265214  0.92569356    -0.10900
C1093       C  0.67007946  0.71267720  0.92235158     0.21700
C1094       C  0.65954962  0.70248200  0.90355383    -0.20300
C1095       C  0.66290753  0.72156674  0.88852299    -0.11100
C1096       C  0.66358238  0.69127347  0.93817792    -0.15300
C1097       C  0.67766271  0.69707269  0.95536467    -0.29100
C1098       C  0.67910548  0.77264473  0.87679937    -0.03400
C1099       C  0.66255052  0.76557861  0.86062769    -0.39900
H1100       H  0.69880772  0.78469062  0.91375895     0.12800
H1101       H  0.69276705  0.75149363  0.93999402     0.12500
H1102       H  0.64838905  0.67954144  0.90050460     0.11900
H1103       H  0.65468726  0.71261790  0.87427792     0.12100
H1104       H  0.64631586  0.66956026  0.93543794     0.14900
H1105       H  0.69599013  0.71806856  0.95811121     0.13700
H1106       H  0.69434186  0.79519073  0.87950232     0.11300
H1107       H  0.64646176  0.74342016  0.85788398     0.13400
C1108       C  0.44673013  0.72308347  0.81194323     0.19400
C1109       C  0.46305710  0.75293964  0.81499064    -0.18700
C1110       C  0.49286610  0.76685874  0.81363412    -0.10900
C1111       C  0.50708528  0.75119010  0.80893330     0.21700
C1112       C  0.49073019  0.72142036  0.80559059    -0.20300
C1113       C  0.46093868  0.70752123  0.80689722    -0.11100
C1114       C  0.53881559  0.76467168  0.80814833    -0.15300
C1115       C  0.55639070  0.79316682  0.80619523    -0.29100
C1116       C  0.41512233  0.70916445  0.81424482    -0.03400
C1117       C  0.39835805  0.68067234  0.81688882    -0.39900
H1118       H  0.45274363  0.76550036  0.81884386     0.12800
H1119       H  0.50453721  0.78968944  0.81679728     0.12500
H1120       H  0.50106278  0.70881736  0.80189583     0.11900
H1121       H  0.44934148  0.68468280  0.80377694     0.12100
H1122       H  0.54805849  0.75039466  0.80904077     0.14900
H1123       H  0.54774043  0.80780171  0.80451755     0.13700
H1124       H  0.40546288  0.72309623  0.81453500     0.11300
H1125       H  0.40753437  0.66639241  0.81732800     0.13400
C1126       C  0.38700466  0.35634689  0.61589503     0.19400
C1127       C  0.39187136  0.34563301  0.59843769    -0.18700
C1128       C  0.40313308  0.36339744  0.58220220    -0.10900
C1129       C  0.40989712  0.39258180  0.58297588     0.21700
C1130       C  0.40532666  0.40337824  0.60050805    -0.20300
C1131       C  0.39404440  0.38559915  0.61674781    -0.11100
C1132       C  0.42275843  0.41281902  0.56630030    -0.15300
C1133       C  0.42398196  0.40467343  0.54784832    -0.29100
C1134       C  0.37558104  0.33645282  0.63285982    -0.03400
C1135       C  0.36511553  0.34195021  0.64919676    -0.39900
H1136       H  0.38704544  0.32333124  0.59735479     0.12800
H1137       H  0.40691505  0.35412633  0.56930416     0.12500
H1138       H  0.41066113  0.42581548  0.60170272     0.11900
H1139       H  0.39145405  0.39515259  0.62994137     0.12100
H1140       H  0.43163963  0.43568369  0.56943342     0.14900
H1141       H  0.41477483  0.38204758  0.54407424     0.13700
H1142       H  0.37543201  0.31593289  0.63164395     0.11300
H1143       H  0.36408869  0.36178434  0.65067705     0.13400
C1144       C  0.37605627  0.40839636  0.40714158     0.19400
C1145       C  0.38318057  0.41228240  0.38736975    -0.18700
C1146       C  0.36242611  0.39739030  0.37297592    -0.10900
C1147       C  0.33389947  0.37868258  0.37808801     0.21700
C1148       C  0.32679307  0.37492100  0.39787297    -0.20300
C1149       C  0.34766044  0.38935958  0.41226588    -0.11100
C1150       C  0.31074258  0.36436025  0.36322147    -0.15300
C1151       C  0.31496460  0.35688441  0.34529548    -0.29100
C1152       C  0.39807976  0.42589377  0.42203827    -0.03400
C1153       C  0.39927849  0.41578845  0.43976270    -0.39900
H1154       H  0.40484503  0.42706632  0.38305190     0.12800
H1155       H  0.36857636  0.40139154  0.35788085     0.12500
H1156       H  0.30493704  0.36092257  0.40220378     0.11900
H1157       H  0.34133694  0.38639795  0.42735702     0.12100
H1158       H  0.28920007  0.35899300  0.36745546     0.14900
H1159       H  0.33592379  0.36012674  0.34133286     0.13700
H1160       H  0.41447559  0.44735962  0.41801480     0.11300
H1161       H  0.38462995  0.39347380  0.44326815     0.13400
C1162       C  0.57937218  0.55753126  0.57393821     0.19400
C1163       C  0.57643747  0.57299850  0.58947963    -0.18700
C1164       C  0.59912890  0.58828559  0.60247626    -0.10900
C1165       C  0.62534397  0.58829826  0.60019897     0.21700
C1166       C  0.62770801  0.57167216  0.58514566    -0.20300
C1167       C  0.60502474  0.55640972  0.57218232    -0.11100
C1168       C  0.65094157  0.60557253  0.61274268    -0.15300
C1169       C  0.65306915  0.62567910  0.62563270    -0.29100
C1170       C  0.55523183  0.54250049  0.55998153    -0.03400
C1171       C  0.55921229  0.53759201  0.54138650    -0.39900
H1172       H  0.55667891  0.57369957  0.59136312     0.12800
H1173       H  0.59576325  0.59995790  0.61411991     0.12500
H1174       H  0.64735983  0.57077688  0.58322180     0.11900
H1175       H  0.60766465  0.54366766  0.56089380     0.12100
H1176       H  0.66940308  0.60248590  0.61059620     0.14900
H1177       H  0.63535513  0.62974416  0.62802641     0.13700
H1178       H  0.53377635  0.53616942  0.56497178     0.11300
H1179       H  0.58067956  0.54506396  0.53603107     0.13400
C1180       C  0.57216901  0.63569649  0.38663692     0.19400
C1181       C  0.57972769  0.63814622  0.40639862    -0.18700
C1182       C  0.56380662  0.61567356  0.41921602    -0.10900
C1183       C  0.53958827  0.59054726  0.41255954     0.21700
C1184       C  0.53123341  0.58870242  0.39298712    -0.20300
C1185       C  0.54754884  0.61090055  0.38006638    -0.11100
C1186       C  0.52246667  0.56630383  0.42585202    -0.15300
C1187       C  0.53468505  0.55819948  0.43992656    -0.29100
C1188       C  0.59048405  0.65913588  0.37317725    -0.03400
C1189       C  0.59647206  0.65359942  0.35522988    -0.39900
H1190       H  0.59840445  0.65720201  0.41182821     0.12800
H1191       H  0.57029965  0.61807568  0.43435757     0.12500
H1192       H  0.51239650  0.56976707  0.38760621     0.11900
H1193       H  0.54083209  0.60874627  0.36498170     0.12100
H1194       H  0.49951829  0.55404817  0.42340926     0.14900
H1195       H  0.55782054  0.56915993  0.44141878     0.13700
H1196       H  0.60149481  0.68108279  0.37879911     0.11300
H1197       H  0.58757739  0.63140415  0.35028714     0.13400
C1198       C  0.61162689  0.38812574  0.47529316     0.19400
C1199       C  0.58203054  0.37288411  0.47148202    -0.18700
C1200       C  0.56543740  0.38683789  0.47136339    -0.10900
C1201       C  0.57801421  0.41663150  0.47518268     0.21700
C1202       C  0.60771985  0.43201091  0.47852947    -0.20300
C1203       C  0.62432828  0.41804905  0.47865543    -0.11100
C1204       C  0.56126456  0.43258295  0.47606104    -0.15300
C1205       C  0.53244854  0.42004723  0.47708413    -0.29100
C1206       C  0.62780211  0.37158419  0.47608839    -0.03400
C1207       C  0.65638487  0.38308574  0.47873615    -0.39900
H1208       H  0.57154990  0.34988017  0.46868878     0.12800
H1209       H  0.54286081  0.37405601  0.46822952     0.12500
H1210       H  0.61814686  0.45498937  0.48140527     0.11900
H1211       H  0.64692252  0.43087855  0.48168129     0.12100
H1212       H  0.57348545  0.45595190  0.47694047     0.14900
H1213       H  0.51957479  0.39678417  0.47696053     0.13700
H1214       H  0.61517037  0.34831749  0.47453503     0.11300
H1215       H  0.66991468  0.40618934  0.48002685     0.13400
C1216       C  0.37997648  0.60670215  0.51032511     0.19400
C1217       C  0.37192832  0.58066784  0.52009717    -0.18700
C1218       C  0.38446483  0.56343002  0.51561097    -0.10900
C1219       C  0.40512213  0.57158477  0.50094324     0.21700
C1220       C  0.41268112  0.59728653  0.49086099    -0.20300
C1221       C  0.40049894  0.61477854  0.49557907    -0.11100
C1222       C  0.41852874  0.55346486  0.49543564    -0.15300
C1223       C  0.42286087  0.53652971  0.50813317    -0.29100
C1224       C  0.36541099  0.62397654  0.51509714    -0.03400
C1225       C  0.37773841  0.65288903  0.51317001    -0.39900
H1226       H  0.35586191  0.57363704  0.53129996     0.12800
H1227       H  0.37744770  0.54342638  0.52335360     0.12500
H1228       H  0.42822032  0.60395294  0.47932488     0.11900
H1229       H  0.40666620  0.63421781  0.48732562     0.12100
H1230       H  0.42670968  0.55554467  0.48078156     0.14900
H1231       H  0.41682438  0.53611119  0.52320478     0.13700
H1232       H  0.34404627  0.61249403  0.52107601     0.11300
H1233       H  0.39980009  0.66486486  0.50854462     0.13400
C1234       C  0.47526126  0.96853352  0.00275252     0.19400
C1235       C  0.48046708  0.94722217  0.99459418    -0.18700
C1236       C  0.50714000  0.94861416  0.99673897    -0.10900
C1237       C  0.52940976  0.97162299  0.00697920     0.21700
C1238       C  0.52410394  0.99262709  0.01549357    -0.20300
C1239       C  0.49744092  0.99131060  0.01328893    -0.11100
C1240       C  0.55832542  0.97434947  0.00902565    -0.15300
C1241       C  0.56938647  0.96418625  0.99557401    -0.29100
C1242       C  0.44688066  0.96668518  0.99920898    -0.03400
C1243       C  0.43664596  0.98123720  0.00958057    -0.39900
H1244       H  0.46379639  0.92937939  0.98648679     0.12800
H1245       H  0.51012986  0.93152379  0.99047990     0.12500
H1246       H  0.54089547  0.01053628  0.02347928     0.11900
H1247       H  0.49471297  0.00857897  0.01946398     0.12100
H1248       H  0.57149865  0.98658520  0.02135572     0.14900
H1249       H  0.55712233  0.95362875  0.98255036     0.13700
H1250       H  0.43364084  0.95228560  0.98764656     0.11300
H1251       H  0.44879372  0.99479497  0.02174395     0.13400
C1252       C  0.66188568  0.91778206  0.89856852     0.19400
C1253       C  0.67609471  0.92166602  0.91648080    -0.18700
C1254       C  0.66763643  0.93120967  0.93286682    -0.10900
C1255       C  0.64463915  0.93709780  0.93165855     0.21700
C1256       C  0.63048669  0.93325020  0.91374779    -0.20300
C1257       C  0.63889600  0.92368627  0.89740412    -0.11100
C1258       C  0.63364896  0.94579606  0.94875756    -0.15300
C1259       C  0.64828820  0.95613538  0.96552198    -0.29100
C1260       C  0.67004918  0.90527806  0.88198204    -0.03400
C1261       C  0.66210582  0.90583554  0.86344848    -0.39900
H1262       H  0.69352376  0.91681173  0.91789093     0.12800
H1263       H  0.67868472  0.93304577  0.94645869     0.12500
H1264       H  0.61248474  0.93724336  0.91244402     0.11900
H1265       H  0.62656375  0.92006513  0.88417213     0.12100
H1266       H  0.61256076  0.94395096  0.94731048     0.14900
H1267       H  0.66981386  0.95933725  0.96718539     0.13700
H1268       H  0.68214825  0.89419173  0.88530729     0.11300
H1269       H  0.65068220  0.91736356  0.85962206     0.13400
C1270       C  0.99521116  0.51961543  0.01115640     0.19400
C1271       C  0.99346849  0.50314345  0.02752866    -0.18700
C1272       C  0.99492827  0.47764395  0.02568995    -0.10900
C1273       C  0.99770238  0.46765646  0.00728095     0.21700
C1274       C  0.99983508  0.48429443  0.99089658    -0.20300
C1275       C  0.99843129  0.50991140  0.99274244    -0.11100
C1276       C  0.99868185  0.44023299  0.00469490    -0.15300
C1277       C  0.98733884  0.41853059  0.01754550    -0.29100
C1278       C  0.99285917  0.54622445  0.01409176    -0.03400
C1279       C  0.00096932  0.56760711  0.00105296    -0.39900
H1280       H  0.99115060  0.51014595  0.04189266     0.12800
H1281       H  0.99423729  0.46613265  0.03879679     0.12500
H1282       H  0.00209064  0.47717670  0.97655868     0.11900
H1283       H  0.99930712  0.52156904  0.97967656     0.12100
H1284       H  0.00799219  0.43739588  0.99143901     0.14900
H1285       H  0.97657861  0.42040153  0.03031956     0.13700
H1286       H  0.98477118  0.54863814  0.02802173     0.11300
H1287       H  0.01011835  0.56640980  0.98730610     0.13400
C1288       C  0.06557476  0.32939609  0.92686837     0.19400
C1289       C  0.05354714  0.34780409  0.92664322    -0.18700
C1290       C  0.03764867  0.34899348  0.94235569    -0.10900
C1291       C  0.03345104  0.33187142  0.95894190     0.21700
C1292       C  0.04453561  0.31265777  0.95890214    -0.20300
C1293       C  0.06039140  0.31138178  0.94312511    -0.11100
C1294       C  0.01755352  0.33342832  0.97635088    -0.15300
C1295       C  0.01509294  0.35695635  0.98057439    -0.29100
C1296       C  0.08312363  0.32980721  0.90984389    -0.03400
C1297       C  0.09992965  0.31732964  0.90970142    -0.39900
H1298       H  0.05660833  0.36154372  0.91426191     0.12800
H1299       H  0.02849807  0.36320963  0.94125426     0.12500
H1300       H  0.04123632  0.29880996  0.97125838     0.11900
H1301       H  0.06829561  0.29611802  0.94385832     0.12100
H1302       H  0.00879933  0.31537766  0.98631429     0.14900
H1303       H  0.02519134  0.37562558  0.97124266     0.13700
H1304       H  0.08297076  0.34181543  0.89711158     0.11300
H1305       H  0.10116794  0.30587237  0.92235288     0.13400
C1306       C  0.64443289  0.79613137  0.34650664     0.19400
C1307       C  0.62404354  0.80272809  0.35422611    -0.18700
C1308       C  0.62783203  0.83072096  0.35315846    -0.10900
C1309       C  0.65238225  0.85287015  0.34449317     0.21700
C1310       C  0.67320995  0.84648855  0.33737264    -0.20300
C1311       C  0.66948889  0.81856305  0.33852119    -0.11100
C1312       C  0.65608416  0.88221343  0.34134320    -0.15300
C1313       C  0.64274175  0.89352476  0.35184137    -0.29100
C1314       C  0.63852606  0.76562800  0.34662694    -0.03400
C1315       C  0.65056776  0.75537761  0.33399362    -0.39900
H1316       H  0.60463616  0.78594427  0.36053889     0.12800
H1317       H  0.61095221  0.83453228  0.35845579     0.12500
H1318       H  0.69237825  0.86316126  0.33073474     0.11900
H1319       H  0.68631758  0.81478461  0.33308554     0.12100
H1320       H  0.67034639  0.89494508  0.32981316     0.14900
H1321       H  0.62969079  0.88188301  0.36411359     0.13700
H1322       H  0.62250363  0.75081541  0.35657760     0.11300
H1323       H  0.66551051  0.76956224  0.32331027     0.13400
C1324       C  0.59140141  0.96695312  0.39746316     0.19400
C1325       C  0.59647003  0.96970988  0.41758249    -0.18700
C1326       C  0.57949830  0.97608521  0.42979953    -0.10900
C1327       C  0.55667170  0.97918246  0.42213438     0.21700
C1328       C  0.55121555  0.97586772  0.40204836    -0.20300
C1329       C  0.56865510  0.97015674  0.38974747    -0.11100
C1330       C  0.53776539  0.98476920  0.43501476    -0.15300
C1331       C  0.54817674  0.00264385  0.45040367    -0.29100
C1332       C  0.60869271  0.95844716  0.38512444    -0.03400
C1333       C  0.61628217  0.96789315  0.36686425    -0.39900
H1334       H  0.61358259  0.96685031  0.42385633     0.12800
H1335       H  0.58375634  0.97780959  0.44530038     0.12500
H1336       H  0.53351467  0.97781124  0.39588587     0.11900
H1337       H  0.56379430  0.96735019  0.37432660     0.12100
H1338       H  0.51513536  0.97483545  0.43139934     0.14900
H1339       H  0.57111588  0.01438747  0.45301101     0.13700
H1340       H  0.61603041  0.94442782  0.39154251     0.11300
H1341       H  0.61101656  0.98368000  0.36082273     0.13400
C1342       C  0.11704119  0.32292366  0.31299487     0.19400
C1343       C  0.11870209  0.30090562  0.30267586    -0.18700
C1344       C  0.14449758  0.30021573  0.30159749    -0.10900
C1345       C  0.16930394  0.32148503  0.31084638     0.21700
C1346       C  0.16787778  0.34395954  0.32083802    -0.20300
C1347       C  0.14207952  0.34469785  0.32187646    -0.11100
C1348       C  0.19636806  0.32007093  0.30902889    -0.15300
C1349       C  0.21867745  0.33296627  0.32151749    -0.29100
C1350       C  0.08909392  0.32280628  0.31362327    -0.03400
C1351       C  0.08261618  0.33720257  0.32707221    -0.39900
H1352       H  0.09991052  0.28405440  0.29548688     0.12800
H1353       H  0.14502951  0.28286462  0.29357683     0.12500
H1354       H  0.18672167  0.36141622  0.32748438     0.11900
H1355       H  0.14214234  0.36273904  0.32928442     0.12100
H1356       H  0.19757745  0.30712318  0.29717328     0.14900
H1357       H  0.21740952  0.34481499  0.33400638     0.13700
H1358       H  0.07290893  0.30958253  0.30293310     0.11300
H1359       H  0.09793503  0.34947533  0.33842213     0.13400
C1360       C  0.02574413  0.42708611  0.42013557     0.19400
C1361       C  0.02559880  0.43412255  0.40049287    -0.18700
C1362       C  0.02714433  0.41662783  0.38580354    -0.10900
C1363       C  0.02959479  0.39213231  0.39054307     0.21700
C1364       C  0.03013761  0.38530431  0.41017668    -0.20300
C1365       C  0.02788242  0.40239950  0.42486006    -0.11100
C1366       C  0.03359600  0.37458506  0.37532452    -0.15300
C1367       C  0.01964715  0.36833569  0.35813549    -0.29100
C1368       C  0.02552703  0.44685246  0.43536419    -0.03400
C1369       C  0.01290526  0.43771083  0.45269754    -0.39900
H1370       H  0.02437004  0.45325878  0.39652093     0.12800
H1371       H  0.02737940  0.42278598  0.37078131     0.12500
H1372       H  0.03240169  0.36674185  0.41414409     0.11900
H1373       H  0.02878971  0.39682679  0.43988057     0.12100
H1374       H  0.04765760  0.36567791  0.37866505     0.14900
H1375       H  0.00364321  0.37497030  0.35536770     0.13700
H1376       H  0.03518485  0.46962001  0.43188055     0.11300
H1377       H  0.00109807  0.41480470  0.45574326     0.13400
C1378       C  0.67109642  0.01437946  0.06502851     0.19400
C1379       C  0.66711540  0.03310265  0.07750491    -0.18700
C1380       C  0.68628705  0.04705608  0.09286974    -0.10900
C1381       C  0.70967307  0.04223224  0.09612964     0.21700
C1382       C  0.71292979  0.02262506  0.08414266    -0.20300
C1383       C  0.69372438  0.00859097  0.06889660    -0.11100
C1384       C  0.73237560  0.05891487  0.11071633    -0.15300
C1385       C  0.72821599  0.07088752  0.12675127    -0.29100
C1386       C  0.65176942  0.00172827  0.04791383    -0.03400
C1387       C  0.66017347  0.99410210  0.03157275    -0.39900
H1388       H  0.64973744  0.03775088  0.07492680     0.12800
H1389       H  0.68337775  0.06244263  0.10158366     0.12500
H1390       H  0.73063687  0.01839551  0.08644865     0.11900
H1391       H  0.69684402  0.99338021  0.06014079     0.12100
H1392       H  0.75349395  0.06147411  0.10804797     0.14900
H1393       H  0.70696741  0.06718973  0.13031420     0.13700
H1394       H  0.63073646  0.00013180  0.04838768     0.11300
H1395       H  0.68167530  0.99708042  0.03056966     0.13400
C1396       C  0.93693793  0.27681951  0.05948510     0.19400
C1397       C  0.91677571  0.24770303  0.05639270    -0.18700
C1398       C  0.89980449  0.23070843  0.07173988    -0.10900
C1399       C  0.90293209  0.24252626  0.09058547     0.21700
C1400       C  0.92387186  0.27127236  0.09372464    -0.20300
C1401       C  0.94083061  0.28807731  0.07851257    -0.11100
C1402       C  0.88447532  0.22643330  0.10730455    -0.15300
C1403       C  0.86897268  0.19751408  0.10837540    -0.29100
C1404       C  0.95285554  0.29556812  0.04274200    -0.03400
C1405       C  0.95993663  0.32363770  0.04265512    -0.39900
H1406       H  0.91343338  0.23838339  0.04194494     0.12800
H1407       H  0.88375724  0.20873982  0.06859313     0.12500
H1408       H  0.92707515  0.28090659  0.10806820     0.11900
H1409       H  0.95690350  0.31003709  0.08173320     0.12100
H1410       H  0.88457283  0.23916450  0.11974606     0.14900
H1411       H  0.86952128  0.18412100  0.09662294     0.13700
H1412       H  0.95694015  0.28597842  0.03002423     0.11300
H1413       H  0.95348148  0.33217994  0.05482614     0.13400
C1414       C  0.69732951  0.02023865  0.28814213     0.19400
C1415       C  0.71972506  0.04869780  0.28940250    -0.18700
C1416       C  0.73352178  0.06366370  0.27262108    -0.10900
C1417       C  0.72468370  0.05058441  0.25419765     0.21700
C1418       C  0.70193736  0.02230447  0.25292682    -0.20300
C1419       C  0.68856423  0.00712864  0.26973101    -0.11100
C1420       C  0.73764806  0.06646719  0.23604944    -0.15300
C1421       C  0.76546126  0.08614136  0.23474094    -0.29100
C1422       C  0.68265371  0.00508961  0.30611921    -0.03400
C1423       C  0.67309762  0.97676307  0.30864879    -0.39900
H1424       H  0.72660213  0.05932856  0.30341973     0.12800
H1425       H  0.75050786  0.08570626  0.27404649     0.12500
H1426       H  0.69451396  0.01193166  0.23887884     0.11900
H1427       H  0.67089224  0.98544051  0.26827160     0.12100
H1428       H  0.72407318  0.06096206  0.22315724     0.14900
H1429       H  0.77971713  0.09010384  0.24708787     0.13700
H1430       H  0.68101166  0.01784144  0.31793777     0.11300
H1431       H  0.67697601  0.96446894  0.29755985     0.13400
C1432       C  0.96515757  0.27575189  0.27088905     0.19400
C1433       C  0.96963506  0.27765814  0.25074417    -0.18700
C1434       C  0.94784242  0.25937896  0.23790606    -0.10900
C1435       C  0.92136319  0.23837084  0.24506754     0.21700
C1436       C  0.91702365  0.23625045  0.26521460    -0.20300
C1437       C  0.93855564  0.25492272  0.27800711    -0.11100
C1438       C  0.89867810  0.21701986  0.23205798    -0.15300
C1439       C  0.89340645  0.22318886  0.21401395    -0.29100
C1440       C  0.98903934  0.29439919  0.28424979    -0.03400
C1441       C  0.98483677  0.30439659  0.30121906    -0.39900
H1442       H  0.99008276  0.29326751  0.24494794     0.12800
H1443       H  0.95206464  0.26103947  0.22246760     0.12500
H1444       H  0.89694069  0.21996231  0.27107372     0.11900
H1445       H  0.93468042  0.25237539  0.29348252     0.12100
H1446       H  0.88506421  0.19567621  0.23788459     0.14900
H1447       H  0.90523131  0.24503907  0.20857901     0.13700
H1448       H  0.01068861  0.30063453  0.27975141     0.11300
H1449       H  0.96347373  0.30011777  0.30504856     0.13400
C1450       C  0.74162535  0.23754523  0.16745275     0.19400
C1451       C  0.75237444  0.26484694  0.15899234    -0.18700
C1452       C  0.73626264  0.27919592  0.15863308    -0.10900
C1453       C  0.70890883  0.26671840  0.16695263     0.21700
C1454       C  0.69765251  0.23903873  0.17482645    -0.20300
C1455       C  0.71377622  0.22460799  0.17517936    -0.11100
C1456       C  0.69199642  0.28230672  0.16781437    -0.15300
C1457       C  0.70488953  0.31120010  0.16902913    -0.29100
C1458       C  0.76019511  0.22360606  0.16756138    -0.03400
C1459       C  0.75281538  0.19774041  0.17540116    -0.39900
H1460       H  0.77344893  0.27523147  0.15262188     0.12800
H1461       H  0.74530933  0.30001203  0.15169101     0.12500
H1462       H  0.67652367  0.22877768  0.18110711     0.11900
H1463       H  0.70410746  0.20348332  0.18161471     0.12100
H1464       H  0.66885416  0.26989176  0.16859433     0.14900
H1465       H  0.72805968  0.32336357  0.16957409     0.13700
H1466       H  0.78086879  0.23508890  0.16057895     0.11300
H1467       H  0.73232312  0.18544575  0.18232615     0.13400
C1468       C  0.93194857  0.03807960  0.17657390     0.19400
C1469       C  0.90512703  0.02676045  0.16734454    -0.18700
C1470       C  0.88844338  0.04038373  0.16929651    -0.10900
C1471       C  0.89820937  0.06553561  0.18071194     0.21700
C1472       C  0.92431242  0.07594913  0.19075922    -0.20300
C1473       C  0.94110222  0.06248799  0.18867247    -0.11100
C1474       C  0.88184567  0.08148074  0.18240544    -0.15300
C1475       C  0.86511979  0.08222052  0.16794235    -0.29100
C1476       C  0.94965829  0.02378704  0.17344644    -0.03400
C1477       C  0.97840706  0.03803675  0.17458323    -0.39900
H1478       H  0.89730101  0.00762759  0.15829095     0.12800
H1479       H  0.86791535  0.03111386  0.16192264     0.12500
H1480       H  0.93203312  0.09494350  0.19994101     0.11900
H1481       H  0.96111048  0.07117044  0.19665414     0.12100
H1482       H  0.88530891  0.09465343  0.19533012     0.14900
H1483       H  0.86294019  0.07057652  0.15447403     0.13700
H1484       H  0.93875729  0.00122012  0.16910137     0.11300
H1485       H  0.98961669  0.06097548  0.17776605     0.13400
loop_ 
_geom_bond_atom_site_label_1 
_geom_bond_atom_site_label_2 
_geom_bond_distance 
_geom_bond_site_symmetry_2 
_ccdc_geom_bond_type 
O1           C17   1.277       .  A
O1           Zn7   2.034       .  S
C2           O18   1.276       .  A
C2           O15   1.276       .  A
C2         C1439   1.479       .  S
O3           C16   1.275       .  A
O3          Cd10   2.073       .  S
O4           C22   1.280       .  A
O4          Cd13   2.101       .  S
O5           C19   1.275       .  A
O5           Cd9   2.079       .  S
O6           C17   1.274       .  A
O6           Cd9   2.066       .  S
Zn7          O18   2.018       .  S
Zn7          O20   2.027       .  S
Zn7          O12   1.951       .  S
O8           C19   1.279       .  A
O8          Cd13   2.095       .  S
Cd9          O11   2.070       .  S
Cd9          O12   1.999       .  S
Cd10         O14   2.068       .  S
Cd10         O23   2.060       .  S
Cd10         O12   2.000       .  S
O11          C21   1.276       .  A
O12         Cd13   2.012       .  S
Cd13         O15   2.087       .  S
O14          C21   1.273       .  A
C16          O20   1.274       .  A
C16        C1421   1.478       .  S
C17        C1475   1.477       .  S
C19        C1403   1.486       .  S
C21        C1385   1.476       .  S
C22          O23   1.273       .  A
C22        C1459   1.479       .  S
C24        C1441   1.478   1_455  S
C24          N25   1.359       .  A
C24          N29   1.362       .  A
N25          C26   1.358       .  A
C26        C1367   1.477       .  S
C26          N27   1.359       .  A
N27          C28   1.358       .  A
C28        C1351   1.480       .  S
C28          N29   1.361       .  A
C30        C1423   1.477       .  S
C30          N31   1.358       .  A
C30          N35   1.362       .  A
N31          C32   1.359       .  A
C32        C1313   1.477       .  S
C32          N33   1.356       .  A
N33          C34   1.359       .  A
C34        C1333   1.477       .  S
C34          N35   1.360       .  A
C36        C1405   1.481       .  S
C36          N37   1.368       .  A
C36          N41   1.356       .  A
N37          C38   1.371   1_654  A
C38        C1295   1.483       .  S
C38          N39   1.361       .  A
N39          C40   1.355   1_456  A
C40        C1277   1.477       .  S
C40          N41   1.351       .  A
C42        C1387   1.474       .  S
C42          N43   1.361       .  A
C42          N47   1.357   1_554  A
N43          C44   1.361   1_554  A
C44        C1241   1.477       .  S
C44          N45   1.358       .  A
N45          C46   1.359       .  A
C46        C1259   1.477       .  S
C46          N47   1.355       .  A
O48          C64   1.279       .  A
O48         Zn54   2.046       .  S
C49          O65   1.280       .  A
C49          O62   1.277       .  A
C49        C1223   1.489       .  S
O50          C63   1.274       .  A
O50         Cd57   2.070       .  S
O51          C69   1.276       .  A
O51         Cd60   2.081       .  S
O52          C66   1.277       .  A
O52         Cd56   2.091       .  S
O53          C64   1.277       .  A
O53         Cd56   2.082       .  S
Zn54         O65   2.064       .  S
Zn54         O67   2.040       .  S
Zn54         O59   1.969       .  S
O55          C66   1.276       .  A
O55         Cd60   2.084       .  S
Cd56         O58   2.098       .  S
Cd56         O59   2.009       .  S
Cd57         O61   2.083       .  S
Cd57         O70   2.055       .  S
Cd57         O59   2.007       .  S
O58          C68   1.278       .  A
O59         Cd60   2.013       .  S
Cd60         O62   2.085       .  S
O61          C68   1.276       .  A
C63          O67   1.277       .  A
C63        C1187   1.479       .  S
C64        C1153   1.481       .  S
C66        C1133   1.487       .  S
C68        C1205   1.489       .  S
C69          O70   1.272       .  A
C69        C1171   1.473       .  S
O71          C87   1.276       .  A
O71         Zn77   2.033       .  S
C72          O88   1.276       .  A
C72          O85   1.274       .  A
C72        C1061   1.475       .  S
O73          C86   1.273       .  A
O73         Cd80   2.064       .  S
O74          C92   1.276       .  A
O74         Cd83   2.079       .  S
O75          C89   1.276       .  A
O75         Cd79   2.080       .  S
O76          C87   1.277       .  A
O76         Cd79   2.076       .  S
Zn77         O88   2.021       .  S
Zn77         O90   2.047       .  S
Zn77         O82   1.954       .  S
O78          C89   1.275       .  A
O78         Cd83   2.079       .  S
Cd79         O81   2.079       .  S
Cd79         O82   2.007       .  S
Cd80         O84   2.061       .  S
Cd80         O93   2.071       .  S
Cd80         O82   1.995       .  S
O81          C91   1.277       .  A
O82         Cd83   2.005       .  S
Cd83         O85   2.067       .  S
O84          C91   1.273       .  A
C86          O90   1.277       .  A
C86        C1079   1.480       .  S
C87        C1043   1.481       .  S
C89        C1099   1.482       .  S
C91        C1261   1.474       .  S
C92          O93   1.273       .  A
C92        C1115   1.479       .  S
C94        C1169   1.476       .  S
C94          N95   1.358       .  A
C94          N99   1.362       .  A
N95          C96   1.357       .  A
C96        C1063   1.474       .  S
C96          N97   1.354       .  A
N97          C98   1.358       .  A
C98        C1025   1.479       .  S
C98          N99   1.359       .  A
C100       C1009   1.482       .  S
C100        N101   1.364       .  A
C100        N105   1.358       .  A
N101        C102   1.363       .  A
C102        C989   1.488       .  S
C102        N103   1.362       .  A
N103        C104   1.358       .  A
C104       C1081   1.483       .  S
C104        N105   1.358       .  A
C106       C1097   1.484       .  S
C106        N107   1.357       .  A
C106        N111   1.358       .  A
N107        C108   1.360   1_556  A
C108        C971   1.484       .  S
C108        N109   1.365       .  A
N109        C110   1.365   1_554  A
C110        C953   1.483       .  S
C110        N111   1.359       .  A
O112        C128   1.276       .  A
O112       Zn118   2.032       .  S
C113        O129   1.274       .  A
C113        O126   1.275   1_455  A
C113       C1369   1.478       .  S
O114        C127   1.274       .  A
O114       Cd121   2.079   1_455  S
O115        C133   1.278       .  A
O115       Cd124   2.097       .  S
O116        C130   1.280       .  A
O116       Cd120   2.101       .  S
O117        C128   1.278       .  A
O117       Cd120   2.100       .  S
Zn118       O129   2.016       .  S
Zn118       O131   2.012       .  S
Zn118       O123   1.945       .  S
O119        C130   1.276   1_655  A
O119       Cd124   2.076       .  S
Cd120       O122   2.074       .  S
Cd120       O123   2.016       .  S
Cd121       O125   2.078   1_655  S
Cd121       O134   2.077       .  S
Cd121       O123   2.009   1_655  S
O122        C132   1.275       .  A
O123       Cd124   2.007   1_455  S
Cd124       O126   2.081       .  S
O125        C132   1.278       .  A
C127        O131   1.274       .  A
C127        C881   1.479       .  S
C128        C863   1.486       .  S
C130        C901   1.484       .  S
C132        C917   1.479       .  S
C133        O134   1.274       .  A
C133        C935   1.486       .  S
O135        C151   1.272       .  A
O135       Zn141   2.008       .  S
C136        O152   1.273       .  A
C136        O149   1.275       .  A
C136        C811   1.478       .  S
O137        C150   1.278       .  A
O137       Cd144   2.101       .  S
O138        C156   1.272       .  A
O138       Cd147   2.053       .  S
O139        C153   1.278       .  A
O139       Cd143   2.092       .  S
O140        C151   1.277       .  A
O140       Cd143   2.088       .  S
Zn141       O152   2.019       .  S
Zn141       O154   2.015       .  S
Zn141       O146   1.938       .  S
O142        C153   1.275       .  A
O142       Cd147   2.078       .  S
Cd143       O145   2.062       .  S
Cd143       O146   2.007       .  S
Cd144       O148   2.098       .  S
Cd144       O157   2.097       .  S
Cd144       O146   2.022       .  S
O145        C155   1.274       .  A
O146       Cd147   2.000       .  S
Cd147       O149   2.076       .  S
O148        C155   1.279       .  A
C150        O154   1.274       .  A
C150        C829   1.482       .  S
C151        C773   1.475       .  S
C153        C973   1.485       .  S
C155        C791   1.479       .  S
C156        O157   1.280       .  A
C156        C845   1.475       .  S
C158       C1189   1.478       .  S
C158        N159   1.363       .  A
C158        N163   1.360       .  A
N159        C160   1.362       .  A
C160       C1315   1.476       .  S
C160        N161   1.356       .  A
N161        C162   1.357       .  A
C162        C809   1.479       .  S
C162        N163   1.357       .  A
C164        C827   1.484       .  S
C164        N165   1.364       .  A
C164        N169   1.368       .  A
N165        C166   1.359       .  A
C166        C883   1.473       .  S
C166        N167   1.351       .  A
N167        C168   1.352       .  A
C168        C757   1.476       .  S
C168        N169   1.363       .  A
O170        C186   1.276   1_565  A
O170       Zn176   2.036       .  S
C171        O187   1.275       .  A
C171        O184   1.283       .  A
C171        C737   1.488       .  S
O172        C185   1.275       .  A
O172       Cd179   2.078       .  S
O173        C191   1.282       .  A
O173       Cd182   2.111       .  S
O174        C188   1.271       .  A
O174       Cd178   2.047       .  S
O175        C186   1.271       .  A
O175       Cd178   2.056       .  S
Zn176       O187   2.019       .  S
Zn176       O189   2.031       .  S
Zn176       O181   1.952   1_565  S
O177        C188   1.281       .  A
O177       Cd182   2.121       .  S
Cd178       O180   2.073       .  S
Cd178       O181   1.996       .  S
Cd179       O183   2.081       .  S
Cd179       O192   2.067       .  S
Cd179       O181   2.005       .  S
O180        C190   1.275       .  A
O181       Cd182   2.033       .  S
Cd182       O184   2.130   1_545  S
O183        C190   1.274       .  A
C185        O189   1.276   1_545  A
C185        C719   1.482       .  S
C186       C1331   1.474       .  S
C188       C1007   1.481       .  S
C190        C683   1.482       .  S
C191        O192   1.275       .  A
C191        C701   1.484       .  S
O193        C209   1.272       .  A
O193       Zn199   2.003       .  S
C194        O210   1.276       .  A
C194        O207   1.275       .  A
C194        C595   1.482       .  S
O195        C208   1.277       .  A
O195       Cd202   2.097       .  S
O196        C214   1.274       .  A
O196       Cd205   2.071       .  S
O197        C211   1.281       .  A
O197       Cd201   2.115       .  S
O198        C209   1.280       .  A
O198       Cd201   2.118       .  S
Zn199       O210   2.029       .  S
Zn199       O212   2.023       .  S
Zn199       O204   1.943       .  S
O200        C211   1.275       .  A
O200       Cd205   2.072       .  S
Cd201       O203   2.099       .  S
Cd201       O204   2.031       .  S
Cd202       O206   2.073       .  S
Cd202       O215   2.105       .  S
Cd202       O204   2.019       .  S
O203        C213   1.281       .  A
O204       Cd205   1.998       .  S
Cd205       O207   2.078       .  S
O206        C213   1.276       .  A
C208        O212   1.274       .  A
C208        C613   1.484       .  S
C209        C629   1.483       .  S
C211        C647   1.488       .  S
C213        C667   1.483       .  S
C214        O215   1.280       .  A
C214       C1297   1.485       .  S
C216       C1135   1.487       .  S
C216        N217   1.358       .  A
C216        N221   1.359       .  A
N217        C218   1.359       .  A
C218        C577   1.484       .  S
C218        N219   1.365       .  A
N219        C220   1.366       .  A
C220        C631   1.488       .  S
C220        N221   1.361       .  A
C222        C899   1.488       .  S
C222        N223   1.367       .  A
C222        N227   1.366       .  A
N223        C224   1.362       .  A
C224        C991   1.480       .  S
C224        N225   1.355       .  A
N225        C226   1.354       .  A
C226        C611   1.481   1_655  S
C226        N227   1.362       .  A
O228        C244   1.276       .  A
O228       Zn234   2.019       .  S
C229        O245   1.276       .  A
C229        O242   1.276       .  A
C229        C469   1.481       .  S
O230        C243   1.271       .  A
O230       Cd237   2.054       .  S
O231        C249   1.277       .  A
O231       Cd240   2.095       .  S
O232        C246   1.279       .  A
O232       Cd236   2.095       .  S
O233        C244   1.278       .  A
O233       Cd236   2.093       .  S
Zn234       O245   2.025       .  S
Zn234       O247   2.047       .  S
Zn234       O239   1.959       .  S
O235        C246   1.276       .  A
O235       Cd240   2.081       .  S
Cd236       O238   2.106       .  S
Cd236       O239   2.017       .  S
Cd237       O241   2.058       .  S
Cd237       O250   2.054       .  S
Cd237       O239   1.988       .  S
O238        C248   1.279       .  A
O239       Cd240   2.013       .  S
Cd240       O242   2.083       .  S
O241        C248   1.273       .  A
C243        O247   1.276       .  A
C243        C523   1.476       .  S
C244        C539   1.483       .  S
C246        C505   1.486       .  S
C248        C557   1.481       .  S
C249        O250   1.271       .  A
C249        C485   1.477       .  S
C251       C1151   1.483       .  S
C251        N252   1.361       .  A
C251        N256   1.360       .  A
N252        C253   1.359       .  A
C253       C1349   1.482       .  S
C253        N254   1.360       .  A
N254        C255   1.358       .  A
C255        C541   1.481       .  S
C255        N256   1.361       .  A
C257        C721   1.482       .  S
C257        N258   1.360       .  A
C257        N262   1.363       .  A
N258        C259   1.361       .  A
C259        C755   1.480       .  S
C259        N260   1.356       .  A
N260        C261   1.359       .  A
C261        C521   1.481       .  S
C261        N262   1.360       .  A
C263        C503   1.483       .  S
C263        N264   1.365       .  A
C263        N268   1.357       .  A
N264        C265   1.367   1_554  A
C265        C649   1.488       .  S
C265        N266   1.364       .  A
N266        C267   1.360   1_556  A
C267        C955   1.484       .  S
C267        N268   1.354       .  A
O269        C285   1.275       .  A
O269       Zn275   2.028       .  S
C270        O286   1.274       .  A
C270        O283   1.278       .  A
C270        C451   1.481       .  S
O271        C284   1.276       .  A
O271       Cd278   2.088       .  S
O272        C290   1.276       .  A
O272       Cd281   2.078       .  S
O273        C287   1.274       .  A
O273       Cd277   2.067       .  S
O274        C285   1.274       .  A
O274       Cd277   2.073       .  S
Zn275       O286   2.019       .  S
Zn275       O288   2.007       .  S
Zn275       O280   1.946       .  S
O276        C287   1.277       .  A
O276       Cd281   2.089       .  S
Cd277       O279   2.069       .  S
Cd277       O280   1.997       .  S
Cd278       O282   2.101       .  S
Cd278       O291   2.081       .  S
Cd278       O280   2.019       .  S
O279        C289   1.274       .  A
O280       Cd281   2.016       .  S
Cd281       O283   2.095       .  S
O282        C289   1.279       .  A
C284        O288   1.274       .  A
C284        C359   1.479       .  S
C285        C377   1.480       .  S
C287        C413   1.479       .  S
C289        C431   1.483       .  S
C290        O291   1.277       .  A
C290        C395   1.480       .  S
C292        C379   1.476   1_655  S
C292        N293   1.364       .  A
C292        N297   1.357       .  A
N293        C294   1.364       .  A
C294        C919   1.475       .  S
C294        N295   1.357       .  A
N295        C296   1.355       .  A
C296       C1027   1.475       .  S
C296        N297   1.355       .  A
C298        C361   1.476   1_545  S
C298        N299   1.358       .  A
C298        N303   1.352       .  A
N299        C300   1.362       .  A
C300        C575   1.486       .  S
C300        N301   1.369       .  A
N301        C302   1.365       .  A
C302        C703   1.481       .  S
C302        N303   1.355       .  A
C304        C415   1.483       .  S
C304        N305   1.362   1_456  A
C304        N309   1.361       .  A
N305        C306   1.363       .  A
C306        C793   1.480       .  S
C306        N307   1.357       .  A
N307        C308   1.358       .  A
C308       C1279   1.480   1_655  S
C308        N309   1.356   1_654  A
C310        C397   1.481       .  S
C310        N311   1.361       .  A
C310        N315   1.359       .  A
N311        C312   1.358   1_556  A
C312        C487   1.481   1_565  S
C312        N313   1.360       .  A
N313        C314   1.358       .  A
C314       C1243   1.480       .  S
C314        N315   1.360   1_554  A
C316        C467   1.479       .  S
C316        N317   1.358       .  A
C316        N321   1.361   1_545  A
N317        C318   1.357   1_455  A
C318       C1477   1.478       .  S
C318        N319   1.359   1_545  A
N319        C320   1.361   1_655  A
C320        C775   1.481   1_455  S
C320        N321   1.360       .  A
C322        C937   1.484       .  S
C322        N323   1.365       .  A
C322        N327   1.355       .  A
N323        C324   1.368       .  A
C324       C1207   1.490       .  S
C324        N325   1.364       .  A
N325        C326   1.360       .  A
C326        C685   1.479       .  S
C326        N327   1.354       .  A
C328        C865   1.488       .  S
C328        N329   1.362       .  A
C328        N333   1.363       .  A
N329        C330   1.362       .  A
C330        C739   1.493       .  S
C330        N331   1.362       .  A
N331        C332   1.363       .  A
C332       C1225   1.491       .  S
C332        N333   1.363       .  A
C334       C1045   1.478       .  S
C334        N335   1.360       .  A
C334        N339   1.354   1_565  A
N335        C336   1.362   1_655  A
C336        C449   1.483       .  S
C336        N337   1.365   1_565  A
N337        C338   1.363       .  A
C338        C593   1.477       .  S
C338        N339   1.355   1_455  A
C340        C665   1.479       .  S
C340        N341   1.367       .  A
C340        N345   1.356       .  A
N341        C342   1.369       .  A
C342        C433   1.482       .  S
C342        N343   1.360       .  A
N343        C344   1.356       .  A
C344       C1117   1.477       .  S
C344        N345   1.351       .  A
C346        C559   1.483       .  S
C346        N347   1.367       .  A
C346        N351   1.361       .  A
N347        C348   1.364       .  A
C348       C1457   1.477       .  S
C348        N349   1.354       .  A
N349        C350   1.351       .  A
C350        C847   1.475       .  S
C350        N351   1.358       .  A
C352        C360   1.486   1_565  S
C352        C353   1.404       .  A
C352        C357   1.407       .  A
C353        C354   1.401       .  A
C353        H362   1.083       .  S
C354        C355   1.407       .  A
C354        H363   1.082       .  S
C355        C358   1.483       .  S
C355        C356   1.402       .  A
C356        C357   1.397       .  A
C356        H364   1.083       .  S
C357        H365   1.083       .  S
C358        H366   1.087       .  S
C358        C359   1.347       .  D
C359        H367   1.086       .  S
C360        H368   1.087       .  S
C360        C361   1.344   1_545  D
C361        H369   1.086       .  S
C370        C378   1.487       .  S
C370        C371   1.402       .  A
C370        C375   1.407       .  A
C371        C372   1.400       .  A
C371        H380   1.083       .  S
C372        C373   1.409       .  A
C372        H381   1.081       .  S
C373        C376   1.490       .  S
C373        C374   1.404       .  A
C374        C375   1.399       .  A
C374        H382   1.083       .  S
C375        H383   1.082       .  S
C376        H384   1.087       .  S
C376        C377   1.347       .  D
C377        H385   1.085       .  S
C378        H386   1.087       .  S
C378        C379   1.344       .  D
C379        H387   1.086   1_455  S
C388        C396   1.493       .  S
C388        C389   1.405       .  A
C388        C393   1.409       .  A
C389        C390   1.399       .  A
C389        H398   1.083       .  S
C390        C391   1.408       .  A
C390        H399   1.080       .  S
C391        C394   1.492       .  S
C391        C392   1.404       .  A
C392        C393   1.400       .  A
C392        H400   1.083       .  S
C393        H401   1.079       .  S
C394        H402   1.087       .  S
C394        C395   1.348       .  D
C395        H403   1.083       .  S
C396        H404   1.087       .  S
C396        C397   1.349       .  D
C397        H405   1.082       .  S
C406        C414   1.489       .  S
C406        C407   1.403       .  A
C406        C411   1.407       .  A
C407        C408   1.397       .  A
C407        H416   1.084       .  S
C408        C409   1.410       .  A
C408        H417   1.079       .  S
C409        C412   1.496       .  S
C409        C410   1.407       .  A
C410        C411   1.402       .  A
C410        H418   1.083       .  S
C411        H419   1.081       .  S
C412        H420   1.087       .  S
C412        C413   1.349       .  D
C413        H421   1.082       .  S
C414        H422   1.087       .  S
C414        C415   1.349       .  D
C415        H423   1.084       .  S
C424        C432   1.500       .  S
C424        C425   1.405       .  A
C424        C429   1.412       .  A
C425        C426   1.403       .  A
C425        H434   1.083       .  S
C426        C427   1.410       .  A
C426        H435   1.081       .  S
C427        C430   1.494       .  S
C427        C428   1.402       .  A
C428        C429   1.400       .  A
C428        H436   1.083       .  S
C429        H437   1.080       .  S
C430        H438   1.087       .  S
C430        C431   1.347       .  D
C431        H439   1.085       .  S
C432        H440   1.087       .  S
C432        C433   1.348       .  D
C433        H441   1.083       .  S
C442        C450   1.490       .  S
C442        C443   1.403       .  A
C442        C447   1.408       .  A
C443        C444   1.402       .  A
C443        H452   1.083       .  S
C444        C445   1.409       .  A
C444        H453   1.082       .  S
C445        C448   1.492       .  S
C445        C446   1.404       .  A
C446        C447   1.400       .  A
C446        H454   1.083       .  S
C447        H455   1.082       .  S
C448        H456   1.087       .  S
C448        C449   1.347       .  D
C449        H457   1.086       .  S
C450        H458   1.087       .  S
C450        C451   1.346       .  D
C451        H459   1.086       .  S
C460        C468   1.489       .  S
C460        C461   1.404       .  A
C460        C465   1.408       .  A
C461        C462   1.400       .  A
C461        H470   1.083       .  S
C462        C463   1.408       .  A
C462        H471   1.082       .  S
C463        C466   1.489       .  S
C463        C464   1.404       .  A
C464        C465   1.400       .  A
C464        H472   1.083       .  S
C465        H473   1.082       .  S
C466        H474   1.087       .  S
C466        C467   1.346       .  D
C467        H475   1.085       .  S
C468        H476   1.087       .  S
C468        C469   1.348       .  D
C469        H477   1.085       .  S
C478        C486   1.492       .  S
C478        C479   1.403       .  A
C478        C483   1.410       .  A
C479        C480   1.396       .  A
C479        H488   1.083       .  S
C480        C481   1.409       .  A
C480        H489   1.080       .  S
C481        C484   1.493       .  S
C481        C482   1.404       .  A
C482        C483   1.402       .  A
C482        H490   1.083       .  S
C483        H491   1.080       .  S
C484        H492   1.087       .  S
C484        C485   1.346       .  D
C485        H493   1.084       .  S
C486        H494   1.087       .  S
C486        C487   1.348       .  D
C487        H495   1.083       .  S
C496        C504   1.499       .  S
C496        C497   1.405       .  A
C496        C501   1.412       .  A
C497        C498   1.399       .  A
C497        H506   1.083       .  S
C498        C499   1.408       .  A
C498        H507   1.082       .  S
C499        C502   1.496       .  S
C499        C500   1.404       .  A
C500        C501   1.405       .  A
C500        H508   1.083       .  S
C501        H509   1.080       .  S
C502        H510   1.086       .  S
C502        C503   1.347       .  D
C503        H511   1.085       .  S
C504        H512   1.087       .  S
C504        C505   1.349       .  D
C505        H513   1.083       .  S
C514        C522   1.486       .  S
C514        C515   1.404       .  A
C514        C519   1.406       .  A
C515        C516   1.404       .  A
C515        H524   1.083       .  S
C516        C517   1.408       .  A
C516        H525   1.082       .  S
C517        C520   1.484   1_545  S
C517        C518   1.402       .  A
C518        C519   1.395       .  A
C518        H526   1.083   1_545  S
C519        H527   1.083       .  S
C520        H528   1.087       .  S
C520        C521   1.347       .  D
C521        H529   1.085   1_565  S
C522        H530   1.086       .  S
C522        C523   1.344       .  D
C523        H531   1.087       .  S
C532        C540   1.491       .  S
C532        C533   1.405       .  A
C532        C537   1.407       .  A
C533        C534   1.402       .  A
C533        H542   1.083       .  S
C534        C535   1.408       .  A
C534        H543   1.081       .  S
C535        C538   1.490       .  S
C535        C536   1.404       .  A
C536        C537   1.399       .  A
C536        H544   1.083       .  S
C537        H545   1.082       .  S
C538        H546   1.087       .  S
C538        C539   1.349       .  D
C539        H547   1.085       .  S
C540        H548   1.087       .  S
C540        C541   1.348       .  D
C541        H549   1.085       .  S
C550        C558   1.497       .  S
C550        C551   1.404       .  A
C550        C555   1.411       .  A
C551        C552   1.400       .  A
C551        H560   1.084       .  S
C552        C553   1.411       .  A
C552        H561   1.080       .  S
C553        C556   1.497       .  S
C553        C554   1.404       .  A
C554        C555   1.402       .  A
C554        H562   1.083       .  S
C555        H563   1.080       .  S
C556        H564   1.087       .  S
C556        C557   1.347       .  D
C557        H565   1.083       .  S
C558        H566   1.087       .  S
C558        C559   1.347       .  D
C559        H567   1.083       .  S
C568        C576   1.497       .  S
C568        C569   1.405       .  A
C568        C573   1.409       .  A
C569        C570   1.405       .  A
C569        H578   1.083       .  S
C570        C571   1.411       .  A
C570        H579   1.081       .  S
C571        C574   1.498       .  S
C571        C572   1.404       .  A
C572        C573   1.400       .  A
C572        H580   1.083       .  S
C573        H581   1.082       .  S
C574        H582   1.087       .  S
C574        C575   1.348       .  D
C575        H583   1.084       .  S
C576        H584   1.087       .  S
C576        C577   1.348       .  D
C577        H585   1.085       .  S
C586        C594   1.491       .  S
C586        C587   1.404       .  A
C586        C591   1.410       .  A
C587        C588   1.398       .  A
C587        H596   1.083       .  S
C588        C589   1.407       .  A
C588        H597   1.082       .  S
C589        C592   1.489       .  S
C589        C590   1.403       .  A
C590        C591   1.403       .  A
C590        H598   1.083       .  S
C591        H599   1.081       .  S
C592        H600   1.087       .  S
C592        C593   1.345       .  D
C593        H601   1.086       .  S
C594        H602   1.087       .  S
C594        C595   1.348       .  D
C595        H603   1.084       .  S
C604        C612   1.492       .  S
C604        C605   1.404       .  A
C604        C609   1.408       .  A
C605        C606   1.403       .  A
C605        H614   1.083       .  S
C606        C607   1.409       .  A
C606        H615   1.083       .  S
C607        C610   1.492       .  S
C607        C608   1.403       .  A
C608        C609   1.402       .  A
C608        H616   1.083       .  S
C609        H617   1.083       .  S
C610        H618   1.087       .  S
C610        C611   1.345       .  D
C611        H619   1.086   1_455  S
C612        H620   1.086       .  S
C612        C613   1.347       .  D
C613        H621   1.086       .  S
C622        C630   1.498       .  S
C622        C623   1.404       .  A
C622        C627   1.411       .  A
C623        C624   1.400       .  A
C623        H632   1.083       .  S
C624        C625   1.409       .  A
C624        H633   1.082       .  S
C625        C628   1.497       .  S
C625        C626   1.405       .  A
C626        C627   1.405       .  A
C626        H634   1.083       .  S
C627        H635   1.081       .  S
C628        H636   1.087       .  S
C628        C629   1.347       .  D
C629        H637   1.086       .  S
C630        H638   1.087       .  S
C630        C631   1.348       .  D
C631        H639   1.085       .  S
C640        C648   1.503       .  S
C640        C641   1.406       .  A
C640        C645   1.411       .  A
C641        C642   1.402       .  A
C641        H650   1.083       .  S
C642        C643   1.411       .  A
C642        H651   1.079       .  S
C643        C646   1.504       .  S
C643        C644   1.406       .  A
C644        C645   1.404       .  A
C644        H652   1.083       .  S
C645        H653   1.079       .  S
C646        H654   1.087       .  S
C646        C647   1.351       .  D
C647        H655   1.082       .  S
C648        H656   1.087       .  S
C648        C649   1.351       .  D
C649        H657   1.082       .  S
C658        C666   1.494       .  S
C658        C659   1.402       .  A
C658        C663   1.411       .  A
C659        C660   1.398       .  A
C659        H668   1.084       .  S
C660        C661   1.410       .  A
C660        H669   1.081       .  S
C661        C664   1.497       .  S
C661        C662   1.404       .  A
C662        C663   1.404       .  A
C662        H670   1.083       .  S
C663        H671   1.081       .  S
C664        H672   1.086       .  S
C664        C665   1.345       .  D
C665        H673   1.085       .  S
C666        H674   1.087       .  S
C666        C667   1.346       .  D
C667        H675   1.084       .  S
C676        C684   1.493       .  S
C676        C677   1.404       .  A
C676        C681   1.409       .  A
C677        C678   1.402       .  A
C677        H686   1.083       .  S
C678        C679   1.409       .  A
C678        H687   1.080       .  S
C679        C682   1.492       .  S
C679        C680   1.404       .  A
C680        C681   1.398       .  A
C680        H688   1.084       .  S
C681        H689   1.081       .  S
C682        H690   1.087       .  S
C682        C683   1.348       .  D
C683        H691   1.084       .  S
C684        H692   1.087       .  S
C684        C685   1.347       .  D
C685        H693   1.084       .  S
C694        C702   1.496       .  S
C694        C695   1.403       .  A
C694        C699   1.409       .  A
C695        C696   1.404       .  A
C695        H704   1.083       .  S
C696        C697   1.412       .  A
C696        H705   1.080       .  S
C697        C700   1.498       .  S
C697        C698   1.404       .  A
C698        C699   1.399       .  A
C698        H706   1.083       .  S
C699        H707   1.082       .  S
C700        H708   1.087       .  S
C700        C701   1.348       .  D
C701        H709   1.083       .  S
C702        H710   1.087       .  S
C702        C703   1.346       .  D
C703        H711   1.086       .  S
C712        C720   1.492       .  S
C712        C713   1.404   1_565  A
C712        C717   1.408       .  A
C713        C714   1.401       .  A
C713        H722   1.083       .  S
C714        C715   1.408   1_545  A
C714        H723   1.081       .  S
C715        C718   1.492       .  S
C715        C716   1.404       .  A
C716        C717   1.401       .  A
C716        H724   1.083       .  S
C717        H725   1.081       .  S
C718        H726   1.087       .  S
C718        C719   1.348   1_565  D
C719        H727   1.085       .  S
C720        H728   1.087       .  S
C720        C721   1.348       .  D
C721        H729   1.084       .  S
C730        C738   1.500       .  S
C730        C731   1.406       .  A
C730        C735   1.410       .  A
C731        C732   1.403       .  A
C731        H740   1.083       .  S
C732        C733   1.408       .  A
C732        H741   1.082       .  S
C733        C736   1.501       .  S
C733        C734   1.407       .  A
C734        C735   1.408       .  A
C734        H742   1.083       .  S
C735        H743   1.082       .  S
C736        H744   1.086       .  S
C736        C737   1.349       .  D
C737        H745   1.086       .  S
C738        H746   1.087       .  S
C738        C739   1.352       .  D
C739        H747   1.085       .  S
C748        C756   1.493       .  S
C748        C749   1.403       .  A
C748        C753   1.410       .  A
C749        C750   1.402       .  A
C749        H758   1.083       .  S
C750        C751   1.410       .  A
C750        H759   1.081       .  S
C751        C754   1.490       .  S
C751        C752   1.402       .  A
C752        C753   1.397       .  A
C752        H760   1.084       .  S
C753        H761   1.081       .  S
C754        H762   1.087       .  S
C754        C755   1.345       .  D
C755        H763   1.085       .  S
C756        H764   1.087       .  S
C756        C757   1.344       .  D
C757        H765   1.085       .  S
C766        C774   1.487       .  S
C766        C767   1.403       .  A
C766        C771   1.409       .  A
C767        C768   1.396       .  A
C767        H776   1.083       .  S
C768        C769   1.406       .  A
C768        H777   1.083       .  S
C769        C772   1.486       .  S
C769        C770   1.403       .  A
C770        C771   1.402       .  A
C770        H778   1.083       .  S
C771        H779   1.082       .  S
C772        H780   1.087       .  S
C772        C773   1.344       .  D
C773        H781   1.087       .  S
C774        H782   1.087       .  S
C774        C775   1.347       .  D
C775        H783   1.085   1_655  S
C784        C792   1.494       .  S
C784        C785   1.404       .  A
C784        C789   1.411       .  A
C785        C786   1.400       .  A
C785        H794   1.083       .  S
C786        C787   1.409       .  A
C786        H795   1.082       .  S
C787        C790   1.491       .  S
C787        C788   1.403       .  A
C788        C789   1.400       .  A
C788        H796   1.083       .  S
C789        H797   1.080       .  S
C790        H798   1.086       .  S
C790        C791   1.346       .  D
C791        H799   1.085       .  S
C792        H800   1.086       .  S
C792        C793   1.346       .  D
C793        H801   1.083       .  S
C802        C810   1.490       .  S
C802        C803   1.405       .  A
C802        C807   1.408       .  A
C803        C804   1.400       .  A
C803        H812   1.083       .  S
C804        C805   1.407       .  A
C804        H813   1.082       .  S
C805        C808   1.486       .  S
C805        C806   1.403       .  A
C806        C807   1.397       .  A
C806        H814   1.083       .  S
C807        H815   1.081       .  S
C808        H816   1.087       .  S
C808        C809   1.347       .  D
C809        H817   1.085       .  S
C810        H818   1.086       .  S
C810        C811   1.347       .  D
C811        H819   1.083       .  S
C820        C828   1.492       .  S
C820        C821   1.404       .  A
C820        C825   1.408       .  A
C821        C822   1.404       .  A
C821        H830   1.083       .  S
C822        C823   1.410       .  A
C822        H831   1.081       .  S
C823        C826   1.493   1_655  S
C823        C824   1.403       .  A
C824        C825   1.399       .  A
C824        H832   1.083   1_655  S
C825        H833   1.082       .  S
C826        H834   1.087       .  S
C826        C827   1.347       .  D
C827        H835   1.085   1_455  S
C828        H836   1.086       .  S
C828        C829   1.347       .  D
C829        H837   1.086       .  S
C838        C846   1.489       .  S
C838        C839   1.402       .  A
C838        C843   1.410       .  A
C839        C840   1.398       .  A
C839        H848   1.084       .  S
C840        C841   1.409       .  A
C840        H849   1.081       .  S
C841        C844   1.488       .  S
C841        C842   1.402       .  A
C842        C843   1.399       .  A
C842        H850   1.083       .  S
C843        H851   1.081       .  S
C844        H852   1.087       .  S
C844        C845   1.343       .  D
C845        H853   1.085       .  S
C846        H854   1.087       .  S
C846        C847   1.344       .  D
C847        H855   1.084       .  S
C856        C864   1.495       .  S
C856        C857   1.405       .  A
C856        C861   1.408       .  A
C857        C858   1.402       .  A
C857        H866   1.083       .  S
C858        C859   1.408       .  A
C858        H867   1.082       .  S
C859        C862   1.497       .  S
C859        C860   1.406       .  A
C860        C861   1.405       .  A
C860        H868   1.083       .  S
C861        H869   1.082       .  S
C862        H870   1.087       .  S
C862        C863   1.350       .  D
C863        H871   1.085       .  S
C864        H872   1.087       .  S
C864        C865   1.350       .  D
C865        H873   1.086       .  S
C874        C882   1.487       .  S
C874        C875   1.403       .  A
C874        C879   1.407       .  A
C875        C876   1.402       .  A
C875        H884   1.083   1_455  S
C876        C877   1.409       .  A
C876        H885   1.082   1_455  S
C877        C880   1.485       .  S
C877        C878   1.402       .  A
C878        C879   1.396       .  A
C878        H886   1.084       .  S
C879        H887   1.082       .  S
C880        H888   1.087       .  S
C880        C881   1.347       .  D
C881        H889   1.085       .  S
C882        H890   1.087       .  S
C882        C883   1.343       .  D
C883        H891   1.086       .  S
C892        C900   1.498       .  S
C892        C893   1.406       .  A
C892        C897   1.409   1_455  A
C893        C894   1.405       .  A
C893        H902   1.083       .  S
C894        C895   1.409   1_455  A
C894        H903   1.081       .  S
C895        C898   1.496       .  S
C895        C896   1.404       .  A
C896        C897   1.400       .  A
C896        H904   1.083       .  S
C897        H905   1.081       .  S
C898        H906   1.087       .  S
C898        C899   1.350       .  D
C899        H907   1.084   1_655  S
C900        H908   1.087       .  S
C900        C901   1.350       .  D
C901        H909   1.084   1_455  S
C910        C918   1.488   1_455  S
C910        C911   1.402       .  A
C910        C915   1.407   1_455  A
C911        C912   1.401       .  A
C911        H920   1.083       .  S
C912        C913   1.412       .  A
C912        H921   1.079       .  S
C913        C916   1.492       .  S
C913        C914   1.403   1_455  A
C914        C915   1.396       .  A
C914        H922   1.084       .  S
C915        H923   1.082       .  S
C916        H924   1.087   1_455  S
C916        C917   1.347       .  D
C917        H925   1.083       .  S
C918        H926   1.087   1_655  S
C918        C919   1.344       .  D
C919        H927   1.086       .  S
C928        C936   1.500       .  S
C928        C929   1.406       .  A
C928        C933   1.411       .  A
C929        C930   1.405       .  A
C929        H938   1.083       .  S
C930        C931   1.410       .  A
C930        H939   1.081       .  S
C931        C934   1.496       .  S
C931        C932   1.403       .  A
C932        C933   1.400       .  A
C932        H940   1.083       .  S
C933        H941   1.081       .  S
C934        H942   1.087       .  S
C934        C935   1.348       .  D
C935        H943   1.085       .  S
C936        H944   1.086       .  S
C936        C937   1.348       .  D
C937        H945   1.084       .  S
C946        C954   1.496       .  S
C946        C947   1.404       .  A
C946        C951   1.410   1_556  A
C947        C948   1.401       .  A
C947        H956   1.083       .  S
C948        C949   1.409       .  A
C948        H957   1.081       .  S
C949        C952   1.495       .  S
C949        C950   1.404   1_556  A
C950        C951   1.402       .  A
C950        H958   1.083       .  S
C951        H959   1.081       .  S
C952        H960   1.087   1_556  S
C952        C953   1.347       .  D
C953        H961   1.085       .  S
C954        H962   1.087       .  S
C954        C955   1.348   1_556  D
C955        H963   1.084       .  S
C964        C972   1.497       .  S
C964        C965   1.404       .  A
C964        C969   1.410       .  A
C965        C966   1.400       .  A
C965        H974   1.083       .  S
C966        C967   1.410       .  A
C966        H975   1.080       .  S
C967        C970   1.499       .  S
C967        C968   1.406       .  A
C968        C969   1.403       .  A
C968        H976   1.083       .  S
C969        H977   1.081       .  S
C970        H978   1.087       .  S
C970        C971   1.349       .  D
C971        H979   1.083       .  S
C972        H980   1.087       .  S
C972        C973   1.349       .  D
C973        H981   1.084       .  S
C982        C990   1.494       .  S
C982        C983   1.405       .  A
C982        C987   1.407       .  A
C983        C984   1.406       .  A
C983        H992   1.083       .  S
C984        C985   1.411       .  A
C984        H993   1.080       .  S
C985        C988   1.495       .  S
C985        C986   1.404       .  A
C986        C987   1.396       .  A
C986        H994   1.083       .  S
C987        H995   1.082       .  S
C988        H996   1.087       .  S
C988        C989   1.350       .  D
C989        H997   1.083       .  S
C990        H998   1.086       .  S
C990        C991   1.347       .  D
C991        H999   1.086       .  S
C1000      C1008   1.495       .  S
C1000      C1001   1.403       .  A
C1000      C1005   1.410       .  A
C1001      C1002   1.400       .  A
C1001      H1010   1.084       .  S
C1002      C1003   1.412       .  A
C1002      H1011   1.080       .  S
C1003      C1006   1.499       .  S
C1003      C1004   1.404       .  A
C1004      C1005   1.402       .  A
C1004      H1012   1.083       .  S
C1005      H1013   1.081       .  S
C1006      H1014   1.087       .  S
C1006      C1007   1.346       .  D
C1007      H1015   1.084       .  S
C1008      H1016   1.087       .  S
C1008      C1009   1.347       .  D
C1009      H1017   1.084       .  S
C1018      C1026   1.484       .  S
C1018      C1019   1.404       .  A
C1018      C1023   1.405       .  A
C1019      C1020   1.400       .  A
C1019      H1028   1.083       .  S
C1020      C1021   1.408       .  A
C1020      H1029   1.080       .  S
C1021      C1024   1.486       .  S
C1021      C1022   1.404       .  A
C1022      C1023   1.395       .  A
C1022      H1030   1.084       .  S
C1023      H1031   1.082       .  S
C1024      H1032   1.087       .  S
C1024      C1025   1.347       .  D
C1025      H1033   1.084       .  S
C1026      H1034   1.087       .  S
C1026      C1027   1.347       .  D
C1027      H1035   1.085       .  S
C1036      C1044   1.488       .  S
C1036      C1037   1.404       .  A
C1036      C1041   1.407       .  A
C1037      C1038   1.402       .  A
C1037      H1046   1.083       .  S
C1038      C1039   1.408       .  A
C1038      H1047   1.082       .  S
C1039      C1042   1.487       .  S
C1039      C1040   1.403       .  A
C1040      C1041   1.398       .  A
C1040      H1048   1.083       .  S
C1041      H1049   1.082       .  S
C1042      H1050   1.087       .  S
C1042      C1043   1.347       .  D
C1043      H1051   1.086       .  S
C1044      H1052   1.087       .  S
C1044      C1045   1.345       .  D
C1045      H1053   1.086       .  S
C1054      C1062   1.485       .  S
C1054      C1055   1.403       .  A
C1054      C1059   1.408       .  A
C1055      C1056   1.398       .  A
C1055      H1064   1.083       .  S
C1056      C1057   1.407       .  A
C1056      H1065   1.082       .  S
C1057      C1060   1.482       .  S
C1057      C1058   1.402       .  A
C1058      C1059   1.397       .  A
C1058      H1066   1.083       .  S
C1059      H1067   1.081       .  S
C1060      H1068   1.087       .  S
C1060      C1061   1.345       .  D
C1061      H1069   1.085       .  S
C1062      H1070   1.087       .  S
C1062      C1063   1.345       .  D
C1063      H1071   1.085       .  S
C1072      C1080   1.490   1_565  S
C1072      C1073   1.403       .  A
C1072      C1077   1.409       .  A
C1073      C1074   1.398       .  A
C1073      H1082   1.083       .  S
C1074      C1075   1.407       .  A
C1074      H1083   1.082       .  S
C1075      C1078   1.491       .  S
C1075      C1076   1.405       .  A
C1076      C1077   1.403       .  A
C1076      H1084   1.083       .  S
C1077      H1085   1.081   1_565  S
C1078      H1086   1.087       .  S
C1078      C1079   1.347       .  D
C1079      H1087   1.086       .  S
C1080      H1088   1.087       .  S
C1080      C1081   1.348       .  D
C1081      H1089   1.085       .  S
C1090      C1098   1.494       .  S
C1090      C1091   1.406       .  A
C1090      C1095   1.408       .  A
C1091      C1092   1.402       .  A
C1091      H1100   1.083       .  S
C1092      C1093   1.408       .  A
C1092      H1101   1.081       .  S
C1093      C1096   1.492       .  S
C1093      C1094   1.404       .  A
C1094      C1095   1.399       .  A
C1094      H1102   1.083       .  S
C1095      H1103   1.080       .  S
C1096      H1104   1.087       .  S
C1096      C1097   1.349       .  D
C1097      H1105   1.084       .  S
C1098      H1106   1.087       .  S
C1098      C1099   1.350       .  D
C1099      H1107   1.084       .  S
C1108      C1116   1.491       .  S
C1108      C1109   1.404       .  A
C1108      C1113   1.409       .  A
C1109      C1110   1.399       .  A
C1109      H1118   1.083       .  S
C1110      C1111   1.409       .  A
C1110      H1119   1.081       .  S
C1111      C1114   1.490       .  S
C1111      C1112   1.403       .  A
C1112      C1113   1.398       .  A
C1112      H1120   1.083       .  S
C1113      H1121   1.080       .  S
C1114      H1122   1.087       .  S
C1114      C1115   1.347       .  D
C1115      H1123   1.084       .  S
C1116      H1124   1.087       .  S
C1116      C1117   1.347       .  D
C1117      H1125   1.083       .  S
C1126      C1134   1.498       .  S
C1126      C1127   1.406       .  A
C1126      C1131   1.409       .  A
C1127      C1128   1.402       .  A
C1127      H1136   1.083       .  S
C1128      C1129   1.409       .  A
C1128      H1137   1.080       .  S
C1129      C1132   1.499       .  S
C1129      C1130   1.407       .  A
C1130      C1131   1.403       .  A
C1130      H1138   1.083       .  S
C1131      H1139   1.080       .  S
C1132      H1140   1.087       .  S
C1132      C1133   1.352       .  D
C1133      H1141   1.083       .  S
C1134      H1142   1.087       .  S
C1134      C1135   1.352       .  D
C1135      H1143   1.083       .  S
C1144      C1152   1.489       .  S
C1144      C1145   1.404       .  A
C1144      C1149   1.406       .  A
C1145      C1146   1.402       .  A
C1145      H1154   1.083       .  S
C1146      C1147   1.408       .  A
C1146      H1155   1.082       .  S
C1147      C1150   1.490       .  S
C1147      C1148   1.405       .  A
C1148      C1149   1.401       .  A
C1148      H1156   1.083       .  S
C1149      H1157   1.083       .  S
C1150      H1158   1.087       .  S
C1150      C1151   1.348       .  D
C1151      H1159   1.085       .  S
C1152      H1160   1.087       .  S
C1152      C1153   1.347       .  D
C1153      H1161   1.086       .  S
C1162      C1170   1.484       .  S
C1162      C1163   1.401       .  A
C1162      C1167   1.407       .  A
C1163      C1164   1.398       .  A
C1163      H1172   1.083       .  S
C1164      C1165   1.411       .  A
C1164      H1173   1.079       .  S
C1165      C1168   1.490       .  S
C1165      C1166   1.404       .  A
C1166      C1167   1.396       .  A
C1166      H1174   1.083       .  S
C1167      H1175   1.082       .  S
C1168      H1176   1.087       .  S
C1168      C1169   1.346       .  D
C1169      H1177   1.081       .  S
C1170      H1178   1.087       .  S
C1170      C1171   1.344       .  D
C1171      H1179   1.085       .  S
C1180      C1188   1.485       .  S
C1180      C1181   1.403       .  A
C1180      C1185   1.407       .  A
C1181      C1182   1.400       .  A
C1181      H1190   1.083       .  S
C1182      C1183   1.407       .  A
C1182      H1191   1.083       .  S
C1183      C1186   1.486       .  S
C1183      C1184   1.403       .  A
C1184      C1185   1.401       .  A
C1184      H1192   1.083       .  S
C1185      H1193   1.083       .  S
C1186      H1194   1.087       .  S
C1186      C1187   1.346       .  D
C1187      H1195   1.086       .  S
C1188      H1196   1.087       .  S
C1188      C1189   1.345       .  D
C1189      H1197   1.086       .  S
C1198      C1206   1.500       .  S
C1198      C1199   1.407       .  A
C1198      C1203   1.409       .  A
C1199      C1200   1.403       .  A
C1199      H1208   1.084       .  S
C1200      C1201   1.408       .  A
C1200      H1209   1.080       .  S
C1201      C1204   1.501       .  S
C1201      C1202   1.407       .  A
C1202      C1203   1.404       .  A
C1202      H1210   1.084       .  S
C1203      H1211   1.080       .  S
C1204      H1212   1.087       .  S
C1204      C1205   1.353       .  D
C1205      H1213   1.083       .  S
C1206      H1214   1.087       .  S
C1206      C1207   1.354       .  D
C1207      H1215   1.083       .  S
C1216      C1224   1.498       .  S
C1216      C1217   1.406       .  A
C1216      C1221   1.408       .  A
C1217      C1218   1.405       .  A
C1217      H1226   1.083       .  S
C1218      C1219   1.409       .  A
C1218      H1227   1.082       .  S
C1219      C1222   1.499       .  S
C1219      C1220   1.406       .  A
C1220      C1221   1.405       .  A
C1220      H1228   1.083       .  S
C1221      H1229   1.082       .  S
C1222      H1230   1.087       .  S
C1222      C1223   1.351       .  D
C1223      H1231   1.086       .  S
C1224      H1232   1.087       .  S
C1224      C1225   1.352       .  D
C1225      H1233   1.086       .  S
C1234      C1242   1.490   1_554  S
C1234      C1235   1.404   1_554  A
C1234      C1239   1.409       .  A
C1235      C1236   1.398       .  A
C1235      H1244   1.083       .  S
C1236      C1237   1.407   1_556  A
C1236      H1245   1.082       .  S
C1237      C1240   1.487       .  S
C1237      C1238   1.403       .  A
C1238      C1239   1.400       .  A
C1238      H1246   1.084   1_565  S
C1239      H1247   1.080   1_565  S
C1240      H1248   1.087       .  S
C1240      C1241   1.346   1_554  D
C1241      H1249   1.086       .  S
C1242      H1250   1.087       .  S
C1242      C1243   1.347   1_556  D
C1243      H1251   1.084       .  S
C1252      C1260   1.488       .  S
C1252      C1253   1.403       .  A
C1252      C1257   1.409       .  A
C1253      C1254   1.399       .  A
C1253      H1262   1.083       .  S
C1254      C1255   1.409       .  A
C1254      H1263   1.080       .  S
C1255      C1258   1.487       .  S
C1255      C1256   1.402       .  A
C1256      C1257   1.396       .  A
C1256      H1264   1.084       .  S
C1257      H1265   1.080       .  S
C1258      H1266   1.087       .  S
C1258      C1259   1.345       .  D
C1259      H1267   1.084       .  S
C1260      H1268   1.087       .  S
C1260      C1261   1.345       .  D
C1261      H1269   1.084       .  S
C1270      C1278   1.489       .  S
C1270      C1271   1.403       .  A
C1270      C1275   1.409   1_554  A
C1271      C1272   1.396       .  A
C1271      H1280   1.084       .  S
C1272      C1273   1.408       .  A
C1272      H1281   1.081       .  S
C1273      C1276   1.490       .  S
C1273      C1274   1.404   1_554  A
C1274      C1275   1.401       .  A
C1274      H1282   1.083   1_655  S
C1275      H1283   1.081       .  S
C1276      H1284   1.087   1_654  S
C1276      C1277   1.346       .  D
C1277      H1285   1.084       .  S
C1278      H1286   1.087       .  S
C1278      C1279   1.347   1_655  D
C1279      H1287   1.084   1_554  S
C1288      C1296   1.500       .  S
C1288      C1289   1.404       .  A
C1288      C1293   1.412       .  A
C1289      C1290   1.400       .  A
C1289      H1298   1.083       .  S
C1290      C1291   1.410       .  A
C1290      H1299   1.081       .  S
C1291      C1294   1.499       .  S
C1291      C1292   1.404       .  A
C1292      C1293   1.404       .  A
C1292      H1300   1.083       .  S
C1293      H1301   1.080       .  S
C1294      H1302   1.086       .  S
C1294      C1295   1.347       .  D
C1295      H1303   1.084       .  S
C1296      H1304   1.086       .  S
C1296      C1297   1.349       .  D
C1297      H1305   1.082       .  S
C1306      C1314   1.490       .  S
C1306      C1307   1.403       .  A
C1306      C1311   1.409       .  A
C1307      C1308   1.399       .  A
C1307      H1316   1.083       .  S
C1308      C1309   1.408       .  A
C1308      H1317   1.081       .  S
C1309      C1312   1.487       .  S
C1309      C1310   1.402       .  A
C1310      C1311   1.398       .  A
C1310      H1318   1.084       .  S
C1311      H1319   1.081       .  S
C1312      H1320   1.087       .  S
C1312      C1313   1.345       .  D
C1313      H1321   1.085       .  S
C1314      H1322   1.087       .  S
C1314      C1315   1.345       .  D
C1315      H1323   1.084       .  S
C1324      C1332   1.480       .  S
C1324      C1325   1.402       .  A
C1324      C1329   1.406       .  A
C1325      C1326   1.397       .  A
C1325      H1334   1.083       .  S
C1326      C1327   1.406       .  A
C1326      H1335   1.083       .  S
C1327      C1330   1.482       .  S
C1327      C1328   1.403       .  A
C1328      C1329   1.400       .  A
C1328      H1336   1.083       .  S
C1329      H1337   1.083       .  S
C1330      H1338   1.087       .  S
C1330      C1331   1.343   1_565  D
C1331      H1339   1.087       .  S
C1332      H1340   1.087       .  S
C1332      C1333   1.345       .  D
C1333      H1341   1.086       .  S
C1342      C1350   1.492       .  S
C1342      C1343   1.404       .  A
C1342      C1347   1.409       .  A
C1343      C1344   1.399       .  A
C1343      H1352   1.083       .  S
C1344      C1345   1.404       .  A
C1344      H1353   1.083       .  S
C1345      C1348   1.490       .  S
C1345      C1346   1.408       .  A
C1346      C1347   1.401       .  A
C1346      H1354   1.081       .  S
C1347      H1355   1.081       .  S
C1348      H1356   1.087       .  S
C1348      C1349   1.349       .  D
C1349      H1357   1.085       .  S
C1350      H1358   1.087       .  S
C1350      C1351   1.347       .  D
C1351      H1359   1.084       .  S
C1360      C1368   1.484       .  S
C1360      C1361   1.404       .  A
C1360      C1365   1.406       .  A
C1361      C1362   1.399       .  A
C1361      H1370   1.083       .  S
C1362      C1363   1.405       .  A
C1362      H1371   1.083       .  S
C1363      C1366   1.482       .  S
C1363      C1364   1.403       .  A
C1364      C1365   1.400       .  A
C1364      H1372   1.083       .  S
C1365      H1373   1.083       .  S
C1366      H1374   1.087       .  S
C1366      C1367   1.345       .  D
C1367      H1375   1.086       .  S
C1368      H1376   1.087       .  S
C1368      C1369   1.346       .  D
C1369      H1377   1.086       .  S
C1378      C1386   1.486       .  S
C1378      C1379   1.403       .  A
C1378      C1383   1.408       .  A
C1379      C1380   1.400       .  A
C1379      H1388   1.083       .  S
C1380      C1381   1.408       .  A
C1380      H1389   1.082       .  S
C1381      C1384   1.483       .  S
C1381      C1382   1.401       .  A
C1382      C1383   1.395       .  A
C1382      H1390   1.083       .  S
C1383      H1391   1.081   1_545  S
C1384      H1392   1.087       .  S
C1384      C1385   1.344       .  D
C1385      H1393   1.085       .  S
C1386      H1394   1.087       .  S
C1386      C1387   1.346   1_545  D
C1387      H1395   1.085       .  S
C1396      C1404   1.498       .  S
C1396      C1397   1.405       .  A
C1396      C1401   1.409       .  A
C1397      C1398   1.407       .  A
C1397      H1406   1.083       .  S
C1398      C1399   1.411       .  A
C1398      H1407   1.081       .  S
C1399      C1402   1.495       .  S
C1399      C1400   1.402       .  A
C1400      C1401   1.397       .  A
C1400      H1408   1.083       .  S
C1401      H1409   1.082       .  S
C1402      H1410   1.087       .  S
C1402      C1403   1.347       .  D
C1403      H1411   1.084       .  S
C1404      H1412   1.086       .  S
C1404      C1405   1.346       .  D
C1405      H1413   1.086       .  S
C1414      C1422   1.484       .  S
C1414      C1415   1.403       .  A
C1414      C1419   1.406       .  A
C1415      C1416   1.400       .  A
C1415      H1424   1.083       .  S
C1416      C1417   1.407       .  A
C1416      H1425   1.082       .  S
C1417      C1420   1.485       .  S
C1417      C1418   1.403       .  A
C1418      C1419   1.399       .  A
C1418      H1426   1.083       .  S
C1419      H1427   1.083   1_545  S
C1420      H1428   1.087       .  S
C1420      C1421   1.345       .  D
C1421      H1429   1.086       .  S
C1422      H1430   1.087       .  S
C1422      C1423   1.344   1_545  D
C1423      H1431   1.086       .  S
C1432      C1440   1.486       .  S
C1432      C1433   1.404       .  A
C1432      C1437   1.406       .  A
C1433      C1434   1.401       .  A
C1433      H1442   1.083       .  S
C1434      C1435   1.406       .  A
C1434      H1443   1.083       .  S
C1435      C1438   1.484       .  S
C1435      C1436   1.403       .  A
C1436      C1437   1.399       .  A
C1436      H1444   1.083       .  S
C1437      H1445   1.083       .  S
C1438      H1446   1.087       .  S
C1438      C1439   1.346       .  D
C1439      H1447   1.086       .  S
C1440      H1448   1.087   1_655  S
C1440      C1441   1.345       .  D
C1441      H1449   1.086       .  S
C1450      C1458   1.497       .  S
C1450      C1451   1.403       .  A
C1450      C1455   1.413       .  A
C1451      C1452   1.398       .  A
C1451      H1460   1.084       .  S
C1452      C1453   1.409       .  A
C1452      H1461   1.082       .  S
C1453      C1456   1.492       .  S
C1453      C1454   1.402       .  A
C1454      C1455   1.402       .  A
C1454      H1462   1.083       .  S
C1455      H1463   1.079       .  S
C1456      H1464   1.087       .  S
C1456      C1457   1.344       .  D
C1457      H1465   1.085       .  S
C1458      H1466   1.088       .  S
C1458      C1459   1.346       .  D
C1459      H1467   1.083       .  S
C1468      C1476   1.487       .  S
C1468      C1469   1.403       .  A
C1468      C1473   1.408       .  A
C1469      C1470   1.399       .  A
C1469      H1478   1.083       .  S
C1470      C1471   1.408       .  A
C1470      H1479   1.082       .  S
C1471      C1474   1.486       .  S
C1471      C1472   1.402       .  A
C1472      C1473   1.398       .  A
C1472      H1480   1.083       .  S
C1473      H1481   1.082       .  S
C1474      H1482   1.087       .  S
C1474      C1475   1.345       .  D
C1475      H1483   1.086       .  S
C1476      H1484   1.087       .  S
C1476      C1477   1.347       .  D
C1477      H1485   1.085       .  S
