geometry optimzed in LAMMPS
_audit_creation_date              2020-12-01 
_audit_creation_method            'lammps2cif' 
_symmetry_space_group_name_H-M    'P1' 
_symmetry_Int_Tables_number       1 
_symmetry_cell_setting            triclinic 
loop_ 
_symmetry_equiv_pos_as_xyz 
  x,y,z 
_cell_length_a                    45.47266467 
_cell_length_b                    45.220380976534436 
_cell_length_c                    45.83680169800209 
_cell_angle_alpha                 90.58274055380903 
_cell_angle_beta                  89.90170793367837 
_cell_angle_gamma                 89.81096548196956 
loop_ 
_atom_site_label 
_atom_site_type_symbol 
_atom_site_fract_x 
_atom_site_fract_y 
_atom_site_fract_z 
_atom_site_charge 
N1          N  0.65654016  0.72441164  0.73467810    -0.26300
N2          N  0.64718531  0.73578632  0.70984466    -0.34200
C3          C  0.62112226  0.74926415  0.71451635     0.02000
C4          C  0.61397405  0.74648940  0.74371496     0.08100
C5          C  0.63696902  0.73088567  0.75586140    -0.05000
H6          H  0.60854415  0.76056984  0.69797681     0.08700
H7          H  0.63886959  0.72387958  0.77827952     0.09900
Cu8        Cu  0.67070878  0.73379076  0.67088598     0.44200
Cu9        Cu  0.69369851  0.69773419  0.73853683     0.42000
Cu10       Cu  0.73604888  0.68888757  0.67251831     0.43900
N11         N  0.70146789  0.73275686  0.63722794    -0.33700
N12         N  0.72614184  0.71727570  0.63849776    -0.27900
C13         C  0.74267309  0.72326269  0.61489945    -0.04000
C14         C  0.72750562  0.74326104  0.59780462     0.08200
C15         C  0.70140310  0.74860269  0.61250654     0.02000
H16         H  0.76409216  0.71371943  0.61051640     0.09600
H17         H  0.68410952  0.76373945  0.60622997     0.08700
N18         N  0.74128412  0.66220614  0.70882360    -0.35100
N19         N  0.72678428  0.66613402  0.73360186    -0.27300
C20         C  0.73463539  0.64468946  0.75231121    -0.02600
C21         C  0.75479373  0.62624530  0.73841738     0.06100
C22         C  0.75832739  0.63796497  0.71091481     0.04100
H23         H  0.72506545  0.64173867  0.77371180     0.09300
H24         H  0.77178052  0.62907574  0.69340110     0.08100
N25         N  0.74867597  0.20149666  0.64781496    -0.26300
N26         N  0.72924354  0.17981948  0.64898268    -0.34200
C27         C  0.73484525  0.16038381  0.62718938     0.02000
C28         C  0.75923607  0.17004866  0.61187711     0.08100
C29         C  0.76753790  0.19603707  0.62569191    -0.05000
H30         H  0.72230590  0.14049254  0.62303908     0.08700
H31         H  0.78551568  0.21034126  0.61963800     0.09900
Cu32       Cu  0.69637371  0.17717269  0.68068627     0.44200
Cu33       Cu  0.74766222  0.23844655  0.67528555     0.42000
Cu34       Cu  0.69227087  0.23834100  0.73227407     0.43900
N35         N  0.66494954  0.18019542  0.71383762    -0.33700
N36         N  0.66292633  0.20310790  0.73191979    -0.27900
C37         C  0.63880541  0.20001670  0.74866172    -0.04000
C38         C  0.62527188  0.17367010  0.74122472     0.08200
C39         C  0.64246818  0.16160653  0.71909345     0.02000
H40         H  0.63135428  0.21606176  0.76472855     0.09600
H41         H  0.63809117  0.14163059  0.70667294     0.08700
N42         N  0.72264215  0.27217977  0.72690268    -0.35100
N43         N  0.74195956  0.27284233  0.70530771    -0.27300
C44         C  0.75723659  0.29825404  0.70705480    -0.02600
C45         C  0.74750734  0.31404134  0.73120316     0.06100
C46         C  0.72557042  0.29685561  0.74331512     0.04100
H47         H  0.77466406  0.30444292  0.69224266     0.09300
H48         H  0.71242282  0.30205991  0.76239004     0.08100
N49         N  0.17175860  0.25196008  0.71610753    -0.26300
N50         N  0.18562329  0.24851315  0.74119735    -0.34200
C51         C  0.17787916  0.27082702  0.75940495     0.02000
C52         C  0.15856163  0.28928583  0.74481021     0.08100
C53         C  0.15534396  0.27670738  0.71745598    -0.05000
H54         H  0.18683586  0.27419950  0.78103098     0.08700
H55         H  0.14234410  0.28517146  0.69961979     0.09900
Cu56       Cu  0.21769261  0.21606535  0.74750945     0.44200
Cu57       Cu  0.17639689  0.22384816  0.68045732     0.42000
Cu58       Cu  0.23902574  0.17601492  0.68076023     0.43900
N59         N  0.25399086  0.18780773  0.74424159    -0.33700
N60         N  0.26244800  0.17480574  0.71960056    -0.27900
C61         C  0.28803959  0.16057915  0.72407477    -0.04000
C62         C  0.29601537  0.16457015  0.75295034     0.08200
C63         C  0.27382731  0.18168770  0.76516882     0.02000
H64         H  0.29983860  0.14807697  0.70753830     0.09600
H65         H  0.27272338  0.18997142  0.78737335     0.08700
N66         N  0.20940651  0.17740653  0.64637020    -0.35100
N67         N  0.18554009  0.19415149  0.64698009    -0.27300
C68         C  0.16945995  0.18861630  0.62295600    -0.02600
C69         C  0.18412422  0.16757701  0.60626750     0.06100
C70         C  0.20946302  0.16112983  0.62161308     0.04100
H71         H  0.14878253  0.19929813  0.61792747     0.09300
H72         H  0.22623117  0.14512838  0.61567398     0.08100
N73         N  0.15966876  0.64496537  0.72210665    -0.26300
N74         N  0.17818677  0.64553952  0.74434471    -0.34200
C75         C  0.17507808  0.62058012  0.75973189     0.02000
C76         C  0.15392304  0.60332585  0.74625471     0.08100
C77         C  0.14477777  0.61930773  0.72240336    -0.05000
H78         H  0.18765996  0.61520342  0.77899053     0.08700
H79         H  0.12806500  0.61305600  0.70676994     0.09900
Cu80       Cu  0.20798398  0.67929826  0.75227013     0.44200
Cu81       Cu  0.15429572  0.67941174  0.69292882     0.42000
Cu82       Cu  0.20244399  0.74152474  0.70382970     0.43900
N83         N  0.23583987  0.71548928  0.75427359    -0.33700
N84         N  0.23276799  0.73884949  0.73741911    -0.27900
C85         C  0.25391237  0.75853235  0.74391377    -0.04000
C86         C  0.27151020  0.74674516  0.76539687     0.08200
C87         C  0.25949603  0.71939666  0.77149472     0.02000
H88         H  0.25712625  0.77924145  0.73275914     0.09600
H89         H  0.26748244  0.70342256  0.78703951     0.08700
N90         N  0.17262215  0.73858028  0.66976104    -0.35100
N91         N  0.15406359  0.71637370  0.66637467    -0.27300
C92         C  0.13737696  0.72129702  0.64265954    -0.02600
C93         C  0.14637311  0.74749538  0.63020769     0.06100
C94         C  0.16875967  0.75786442  0.64793452     0.04100
H95         H  0.12065066  0.70641099  0.63452345     0.09300
H96         H  0.18124565  0.77798415  0.64526222     0.08100
N97         N  0.24950879  0.72061518  0.17237578    -0.26300
N98         N  0.25454408  0.73664428  0.19616292    -0.34200
C99         C  0.27850611  0.75339194  0.19185756     0.02000
C100        C  0.28871352  0.74816992  0.16389896     0.08100
C101        C  0.26987654  0.72725406  0.15210574    -0.05000
H102        H  0.28792456  0.76816361  0.20801033     0.08700
H103        H  0.27174858  0.71653203  0.13097121     0.09900
Cu104      Cu  0.22864381  0.73604307  0.23351136     0.44200
Cu105      Cu  0.21752616  0.68779295  0.16990708     0.42000
Cu106      Cu  0.17064635  0.68320548  0.23398176     0.43900
N107        N  0.19622085  0.73566898  0.26544559    -0.33700
N108        N  0.17392747  0.71701665  0.26470302    -0.27900
C109        C  0.15524955  0.72368711  0.28661584    -0.04000
C110        C  0.16659913  0.74735293  0.30219950     0.08200
C111        C  0.19263427  0.75441388  0.28819982     0.02000
H112        H  0.13500579  0.71203844  0.29099857     0.09600
H113        H  0.20736996  0.77239518  0.29354425     0.08700
N114        N  0.17263264  0.65094285  0.20153951    -0.35100
N115        N  0.18854247  0.65309053  0.17746382    -0.27300
C116        C  0.18433994  0.62864814  0.16094433    -0.06600
C117        C  0.16519684  0.61018351  0.17561021     0.06100
C118        C  0.15841497  0.62491926  0.20127071     0.04100
H119        H  0.19514301  0.62423530  0.14030170     0.09300
H120        H  0.14399808  0.61738071  0.21844232     0.08100
N121        N  0.69692760  0.65913717  0.17804970    -0.26300
N122        N  0.72290458  0.66286926  0.19045555    -0.34200
C123        C  0.73961869  0.63881123  0.18499484     0.02000
C124        C  0.72320015  0.61893417  0.16861530     0.08100
C125        C  0.69624903  0.63249079  0.16475508    -0.05000
H126        H  0.76174875  0.63569775  0.19306064     0.08700
H127        H  0.67762445  0.62381047  0.15281026     0.09900
Cu128      Cu  0.73314651  0.69938301  0.21648447     0.44200
Cu129      Cu  0.66415281  0.69104834  0.17829318     0.42000
Cu130      Cu  0.67851736  0.75863637  0.21726535     0.43900
N131        N  0.73253258  0.73386019  0.24692733    -0.33700
N132        N  0.71193269  0.75459659  0.24772211    -0.27900
C133        C  0.71492665  0.77068928  0.27234704    -0.04000
C134        C  0.73873892  0.75993542  0.28759880     0.08200
C135        C  0.74952120  0.73663727  0.27084651     0.02000
H136        H  0.70025775  0.78837839  0.27908643     0.09600
H137        H  0.76712919  0.72162451  0.27653414     0.08700
N138        N  0.64399208  0.75388418  0.18812572    -0.35100
N139        N  0.63795617  0.72840413  0.17513669    -0.27300
C140        C  0.61394654  0.73168110  0.15845233    -0.02600
C141        C  0.60451208  0.76072876  0.16083998     0.06100
C142        C  0.62414584  0.77425206  0.17970198     0.04100
H143        H  0.60463561  0.71437756  0.14490974     0.09300
H144        H  0.62387687  0.79709024  0.18696878     0.08100
N145        N  0.72171296  0.26003721  0.20082411    -0.26300
N146        N  0.71057369  0.25568359  0.17449096    -0.34200
C147        C  0.71581224  0.27968612  0.15817355     0.02000
C148        C  0.73072603  0.30022196  0.17514948     0.08100
C149        C  0.73394395  0.28709676  0.20206953    -0.05000
H150        H  0.70867518  0.28224135  0.13582901     0.08700
H151        H  0.74478265  0.29634975  0.22104853     0.09900
Cu152      Cu  0.68681475  0.21821583  0.16263313     0.44200
Cu153      Cu  0.72084897  0.22849158  0.23351021     0.42000
Cu154      Cu  0.68355662  0.16009424  0.21653251     0.43900
N155        N  0.65892071  0.18195107  0.15947886    -0.33700
N156        N  0.65698469  0.16144837  0.17976787    -0.27900
C157        C  0.63458021  0.14321974  0.17318970    -0.04000
C158        C  0.62201003  0.15250306  0.14735676     0.08200
C159        C  0.63812829  0.17693280  0.13914826     0.02000
H160        H  0.62772238  0.12482447  0.18646059     0.09600
H161        H  0.63408582  0.19092114  0.12055981     0.08700
N162        N  0.70872573  0.16637184  0.25381416    -0.35100
N163        N  0.72094813  0.19199050  0.26073748    -0.27300
C164        C  0.73381212  0.18972205  0.28702520    -0.02600
C165        C  0.72999981  0.16120496  0.29685426     0.06100
C166        C  0.71401610  0.14692971  0.27526565     0.04100
H167        H  0.74545732  0.20743104  0.29800002     0.09300
H168        H  0.70609876  0.12439536  0.27548892     0.08100
N169        N  0.78717637  0.42379558  0.78729665    -0.26300
N170        N  0.79548806  0.40899695  0.81063948    -0.34200
C171        C  0.78683282  0.38072336  0.80792711     0.02000
C172        C  0.77287124  0.37730558  0.78141545     0.08100
C173        C  0.77345966  0.40503891  0.76879449    -0.05000
H174        H  0.79080700  0.36376753  0.82394738     0.08700
H175        H  0.76384974  0.41131947  0.74818189     0.09900
Cu176      Cu  0.81966487  0.42707171  0.84458401     0.44200
Cu177      Cu  0.79246105  0.46940628  0.78351997     0.42000
Cu178      Cu  0.82737979  0.50609233  0.84554275     0.43900
N179        N  0.84774643  0.44914493  0.87275026    -0.33700
N180        N  0.85068716  0.47821950  0.87308884    -0.27900
C181        C  0.87168870  0.48562216  0.89244374    -0.04000
C182        C  0.88252537  0.45995350  0.90474020     0.08200
C183        C  0.86680157  0.43724607  0.89180625     0.02000
H184        H  0.87894684  0.50799511  0.89680692     0.09600
H185        H  0.86938705  0.41379228  0.89551795     0.08700
N186        N  0.80458881  0.52835238  0.81303632    -0.35100
N187        N  0.79335331  0.51516251  0.78970068    -0.27300
C188        C  0.78056764  0.53571456  0.77281965    -0.02600
C189        C  0.78360099  0.56309303  0.78631871     0.06100
C190        C  0.79878279  0.55754793  0.81181748     0.04100
H191        H  0.76882846  0.53087949  0.75282941     0.09300
H192        H  0.80509007  0.57355726  0.82833309     0.08100
N193        N  0.11670727  0.49137912  0.79615230    -0.26300
N194        N  0.10511500  0.50542414  0.81887964    -0.34200
C195        C  0.11216166  0.53420235  0.81772292     0.02000
C196        C  0.12849676  0.53865985  0.79281425     0.08100
C197        C  0.13101638  0.51110242  0.77955002    -0.05000
H198        H  0.10540297  0.55075055  0.83359971     0.08700
H199        H  0.14302140  0.50565277  0.75980661     0.09900
Cu200      Cu  0.07865432  0.48569295  0.84957763     0.44200
Cu201      Cu  0.11460627  0.44567243  0.79063167     0.42000
Cu202      Cu  0.07556934  0.40681066  0.84852614     0.43900
N203        N  0.04923418  0.46216596  0.87444880    -0.33700
N204        N  0.04785748  0.43298646  0.87417643    -0.27900
C205        C  0.02595943  0.42451295  0.89201889    -0.04000
C206        C  0.01301043  0.44966674  0.90393741     0.08200
C207        C  0.02834811  0.47310026  0.89234843     0.02000
H208        H  0.01997452  0.40178158  0.89605417     0.09600
H209        H  0.02465930  0.49639900  0.89661196     0.08700
N210        N  0.10263089  0.38619146  0.81778493    -0.35100
N211        N  0.11531848  0.39995946  0.79576463    -0.27300
C212        C  0.13022708  0.38000054  0.77944862    -0.02600
C213        C  0.12704378  0.35246376  0.79203996     0.06100
C214        C  0.10960861  0.35727049  0.81634561     0.04100
H215        H  0.14324299  0.38533112  0.76044650     0.09300
H216        H  0.10230794  0.34087790  0.83176826     0.08100
N217        N  0.77293152  0.50517754  0.13097942    -0.26300
N218        N  0.79418328  0.51870740  0.11660123    -0.34200
C219        C  0.79252870  0.54792770  0.12197956     0.02000
C220        C  0.76884411  0.55325426  0.14012315     0.08100
C221        C  0.75679713  0.52569308  0.14542520    -0.05000
H222        H  0.80736104  0.56417446  0.11304831     0.08700
H223        H  0.73823956  0.52082504  0.15935704     0.09900
Cu224      Cu  0.82423550  0.49787548  0.08919396     0.44200
Cu225      Cu  0.76800784  0.45927212  0.13146992     0.42000
Cu226      Cu  0.81584142  0.41984535  0.08054640     0.43900
N227        N  0.85042995  0.47276405  0.06135640    -0.33700
N228        N  0.84728213  0.44386738  0.05827837    -0.27900
C229        C  0.86724114  0.43369704  0.03894634    -0.04000
C230        C  0.88365375  0.45737454  0.02928346     0.08200
C231        C  0.87237510  0.48184816  0.04387439     0.02000
H232        H  0.86941177  0.41079426  0.03219005     0.09600
H233        H  0.87946219  0.50455228  0.04185407     0.08700
N234        N  0.78555696  0.39933784  0.10737089    -0.35100
N235        N  0.76905518  0.41326932  0.12697971    -0.27300
C236        C  0.75353428  0.39305372  0.14193930    -0.02600
C237        C  0.76039739  0.36523344  0.13082326     0.06100
C238        C  0.78054147  0.37012157  0.10887309     0.04100
H239        H  0.73802608  0.39826247  0.15917855     0.09300
H240        H  0.79125842  0.35356673  0.09532283     0.08100
N241        N  0.12702337  0.40568463  0.12564439    -0.26300
N242        N  0.11215336  0.39138152  0.10513904    -0.34200
C243        C  0.11962473  0.36258576  0.10558005     0.02000
C244        C  0.13980074  0.35836942  0.12764372     0.08100
C245        C  0.14401330  0.38616692  0.13997014    -0.05000
H246        H  0.11073774  0.34585419  0.09107385     0.08700
H247        H  0.15886959  0.39194457  0.15752204     0.09900
Cu248      Cu  0.08165323  0.41101277  0.07773277     0.44200
Cu249      Cu  0.12549742  0.45149034  0.13146357     0.42000
Cu250      Cu  0.08182082  0.49027846  0.07784207     0.43900
N251        N  0.05154730  0.43590903  0.05438045    -0.33700
N252        N  0.05182251  0.46513286  0.05445703    -0.27900
C253        C  0.02979393  0.47499685  0.03761702    -0.04000
C254        C  0.01487889  0.45083194  0.02640390     0.08200
C255        C  0.02926638  0.42635676  0.03742707     0.02000
H256        H  0.02513504  0.49808921  0.03364754     0.09600
H257        H  0.02413940  0.40335965  0.03323521     0.08700
N258        N  0.11073449  0.51110115  0.10618672    -0.35100
N259        N  0.12531835  0.49735220  0.12702466    -0.27300
C260        C  0.14092852  0.51745478  0.14233814    -0.02600
C261        C  0.13619060  0.54500782  0.13019531     0.06100
C262        C  0.11711830  0.54010311  0.10727807     0.04100
H263        H  0.15535097  0.51226570  0.16033647     0.09300
H264        H  0.10819904  0.55648901  0.09267094     0.08100
O265        O  0.91855566  0.48052904  0.99814569    -0.72000
O266        O  0.98050380  0.47646140  0.93525844    -0.72900
O267        O  0.91798809  0.48117387  0.93636822    -0.61600
O268        O  0.98109121  0.47662667  0.99677238    -0.70000
O269        O  0.97861322  0.42759301  0.99632828    -0.69500
O270        O  0.91466618  0.43220053  0.93531650    -0.60800
O271        O  0.97742648  0.42745901  0.93462598    -0.73300
O272        O  0.91575117  0.43151635  0.99711242    -0.72100
Cu273      Cu  0.94961628  0.48038272  0.96665992     1.04600
Cu274      Cu  0.94646618  0.42795634  0.96583710     1.04300
C275        C  0.90718825  0.45650004  0.00726327     0.94200
C276        C  0.98905881  0.45127843  0.92545898     0.93400
C277        C  0.90618269  0.45757855  0.92645279     0.85500
C278        C  0.99023359  0.45159889  0.00569910     0.91800
N279        N  0.39835538  0.76730441  0.79161124    -0.26300
N280        N  0.38479898  0.78871579  0.80624611    -0.34200
C281        C  0.35565511  0.78364514  0.80590922     0.02000
C282        C  0.35075572  0.75757266  0.79063279     0.08100
C283        C  0.37826025  0.74771264  0.78208952    -0.05000
H284        H  0.33931624  0.79785236  0.81604912     0.08700
H285        H  0.38321200  0.72833410  0.76892515     0.09900
Cu286      Cu  0.40668984  0.82332009  0.82662547     0.44200
Cu287      Cu  0.44325669  0.76687244  0.78314498     0.42000
Cu288      Cu  0.48640736  0.82095154  0.82223100     0.43900
N289        N  0.43413909  0.85274724  0.84820961    -0.33700
N290        N  0.46318135  0.85152619  0.84707547    -0.27900
C291        C  0.47434285  0.87268830  0.86461566    -0.04000
C292        C  0.45118388  0.88789899  0.87736000     0.08200
C293        C  0.42603914  0.87474267  0.86647636     0.02000
H294        H  0.49756606  0.87634385  0.86819077     0.09600
H295        H  0.40351394  0.88019198  0.87203570     0.08700
N296        N  0.50419923  0.79094234  0.79271462    -0.35100
N297        N  0.48828893  0.77197898  0.77735839    -0.27300
C298        C  0.50603061  0.75739082  0.75854518    -0.02600
C299        C  0.53447439  0.76728656  0.76270142     0.06100
C300        C  0.53252017  0.78854722  0.78453720     0.04100
H301        H  0.49879789  0.74062085  0.74317558     0.09300
H302        H  0.55019600  0.80190171  0.79327027     0.08100
N303        N  0.51322020  0.12094482  0.77406809    -0.26300
N304        N  0.52620247  0.09862847  0.78740466    -0.34200
C305        C  0.55536679  0.09984102  0.78225699     0.02000
C306        C  0.56105997  0.12445615  0.76547931     0.08100
C307        C  0.53382945  0.13731170  0.76069889    -0.05000
H308        H  0.57133920  0.08438991  0.79074444     0.08700
H309        H  0.52925551  0.15682143  0.74798436     0.09900
Cu310      Cu  0.50371630  0.06918589  0.81410504     0.44200
Cu311      Cu  0.46787448  0.12745613  0.77366288     0.42000
Cu312      Cu  0.42467575  0.08148091  0.82121827     0.43900
N313        N  0.47676483  0.04629365  0.84297767    -0.33700
N314        N  0.44809450  0.05083032  0.84543174    -0.27900
C315        C  0.43725513  0.03291852  0.86606819    -0.04000
C316        C  0.46017126  0.01644968  0.87733032     0.08200
C317        C  0.48490799  0.02548340  0.86221197     0.02000
H318        H  0.41437302  0.03209158  0.87250798     0.09600
H319        H  0.50718245  0.01750714  0.86495540     0.08700
N320        N  0.40633931  0.11260996  0.79360616    -0.35100
N321        N  0.42213168  0.12870759  0.77548644    -0.27300
C322        C  0.40383825  0.14480360  0.75887867    -0.02600
C323        C  0.37523600  0.13897667  0.76727875     0.06100
C324        C  0.37760542  0.11846224  0.78938258     0.04100
H325        H  0.41084041  0.15946504  0.74171443     0.09300
H326        H  0.35978731  0.10762789  0.80066705     0.08100
N327        N  0.39474327  0.78076699  0.10224521    -0.26300
N328        N  0.38087602  0.79775810  0.08339623    -0.34200
C329        C  0.35165993  0.79501324  0.08763308     0.02000
C330        C  0.34718654  0.77588530  0.11063138     0.08100
C331        C  0.37497833  0.76730962  0.11932636    -0.05000
H332        H  0.33496967  0.80655420  0.07534671     0.08700
H333        H  0.38048196  0.75205667  0.13653117     0.09900
Cu334      Cu  0.40331734  0.82512390  0.05459796     0.44200
Cu335      Cu  0.43982331  0.77644899  0.10429826     0.42000
Cu336      Cu  0.48393033  0.82737662  0.06419936     0.43900
N337        N  0.43165588  0.85247126  0.03135574    -0.33700
N338        N  0.46057614  0.85312968  0.03472495    -0.27900
C339        C  0.47191632  0.87360183  0.01683168    -0.04000
C340        C  0.44910247  0.88666510  0.00170681     0.08200
C341        C  0.42392278  0.87269385  0.01138574     0.02000
H342        H  0.49504818  0.87891227  0.01531849     0.09600
H343        H  0.40156358  0.87706528  0.00459387     0.08700
N344        N  0.50135872  0.79805575  0.09436936    -0.35100
N345        N  0.48495436  0.77822951  0.10766858    -0.27300
C346        C  0.50205604  0.76139505  0.12466438    -0.02600
C347        C  0.53054102  0.77146635  0.12253403     0.06100
C348        C  0.52945336  0.79475880  0.10312608     0.04100
H349        H  0.49419542  0.74351579  0.13806802     0.09300
H350        H  0.54772719  0.80784231  0.09545605     0.08100
N351        N  0.40923174  0.10293528  0.12609364    -0.26300
N352        N  0.39491030  0.09394972  0.10256452    -0.34200
C353        C  0.36604620  0.09991155  0.10606076     0.02000
C354        C  0.36209137  0.11298703  0.13327754     0.08100
C355        C  0.38987017  0.11434316  0.14539278    -0.05000
H356        H  0.34919594  0.09464944  0.09022247     0.08700
H357        H  0.39569142  0.12364594  0.16644351     0.09900
Cu358      Cu  0.41588387  0.07276577  0.06780841     0.44200
Cu359      Cu  0.45476014  0.10163290  0.12965717     0.42000
Cu360      Cu  0.49630989  0.07384060  0.06756419     0.43900
N361        N  0.44201633  0.04865524  0.03880207    -0.33700
N362        N  0.47112415  0.04879140  0.03870142    -0.27900
C363        C  0.48086015  0.02942211  0.01830937    -0.04000
C364        C  0.45671517  0.01656048  0.00499844     0.08200
C365        C  0.43251624  0.02930100  0.01848575     0.02000
H366        H  0.50378847  0.02472256  0.01386098     0.09600
H367        H  0.40962802  0.02441003  0.01427821     0.08700
N368        N  0.51518509  0.09674103  0.10233741    -0.35100
N369        N  0.50012957  0.10525217  0.12569183    -0.27300
C370        C  0.51863765  0.11774892  0.14501889    -0.02600
C371        C  0.54655874  0.11760051  0.13312249     0.06100
C372        C  0.54363675  0.10412877  0.10600446     0.04100
H373        H  0.51213445  0.12675886  0.16603017     0.09300
H374        H  0.56096639  0.09936390  0.09044226     0.08100
O375        O  0.42890252  0.92338843  0.90865962    -0.72000
O376        O  0.43167992  0.98505608  0.97176773    -0.72900
O377        O  0.43320546  0.98600209  0.90981620    -0.61600
O378        O  0.42763821  0.92221607  0.97018613    -0.70000
O379        O  0.47636311  0.91938769  0.97161439    -0.69500
O380        O  0.48189361  0.98223981  0.91016788    -0.60800
O381        O  0.48044011  0.98248695  0.97245896    -0.73300
O382        O  0.47760022  0.91955021  0.90965749    -0.72100
Cu383      Cu  0.42869693  0.95434194  0.94009709     1.04600
Cu384      Cu  0.48081503  0.95083816  0.94103543     1.04300
C385        C  0.45270339  0.91149679  0.89946249     0.94200
C386        C  0.45635373  0.99363432  0.98200184     0.93400
C387        C  0.45836795  0.99389575  0.90021760     0.85500
C388        C  0.45113726  0.91056579  0.98020410     0.91800
N389        N  0.19187816  0.19346454  0.26132509    -0.26300
N390        N  0.20213519  0.16675280  0.25507989    -0.34200
C391        C  0.19614303  0.14867605  0.27750125     0.02000
C392        C  0.18175102  0.16503212  0.29895374     0.08100
C393        C  0.17961323  0.19329903  0.28802943    -0.05000
H394        H  0.20234264  0.12558304  0.27835820     0.08700
H395        H  0.16927784  0.21223307  0.29845197     0.09900
Cu396      Cu  0.22531267  0.15743501  0.21690978     0.44200
Cu397      Cu  0.19275071  0.22828004  0.23226998     0.42000
Cu398      Cu  0.22020591  0.21297912  0.15961944     0.43900
N399        N  0.25072274  0.15688277  0.17911056    -0.33700
N400        N  0.24817399  0.17630567  0.15783918    -0.27900
C401        C  0.26878981  0.17040110  0.13743003    -0.04000
C402        C  0.28544929  0.14657982  0.14655027     0.08200
C403        C  0.27333731  0.13853390  0.17303285     0.02000
H404        H  0.27248371  0.18355817  0.11819248     0.09600
H405        H  0.28080149  0.12105955  0.18719613     0.08700
N406        N  0.19713094  0.25141355  0.17088460    -0.35100
N407        N  0.18873453  0.25749716  0.19793464    -0.27300
C408        C  0.17601211  0.28437002  0.19878819    -0.02600
C409        C  0.17595375  0.29568052  0.17092944     0.06100
C410        C  0.18952377  0.27421281  0.15369772     0.04100
H411        H  0.16688689  0.29466648  0.21821165     0.09300
H412        H  0.19403784  0.27529361  0.13054835     0.08100
N413        N  0.78084515  0.79119395  0.49189687    -0.26300
N414        N  0.80252253  0.80319895  0.50712114    -0.34200
C415        C  0.79999582  0.79507963  0.53516508     0.02000
C416        C  0.77531460  0.77758739  0.53790937     0.08100
C417        C  0.76362469  0.77558530  0.51005826    -0.05000
H418        H  0.81512361  0.80136623  0.55231087     0.08700
H419        H  0.74484004  0.76263871  0.50324795     0.09900
Cu420      Cu  0.83487391  0.83006448  0.48943959     0.44200
Cu421      Cu  0.77815984  0.79314815  0.44653735     0.42000
Cu422      Cu  0.84098925  0.82715369  0.41150053     0.43900
N423        N  0.86340242  0.85678247  0.46608103    -0.33700
N424        N  0.86558600  0.85552549  0.43733850    -0.27900
C425        C  0.88517257  0.87574406  0.42845073    -0.04000
C426        C  0.89589355  0.89043626  0.45277796     0.08200
C427        C  0.88165068  0.87786611  0.47629638     0.02000
H428        H  0.89109265  0.87950629  0.40592241     0.09600
H429        H  0.88426952  0.88365501  0.49910469     0.08700
N430        N  0.81038541  0.80153690  0.38955829    -0.35100
N431        N  0.78630941  0.79091331  0.40178008    -0.27300
C432        C  0.77010073  0.77735156  0.38106671    -0.02600
C433        C  0.78499725  0.77923075  0.35475820     0.06100
C434        C  0.81048653  0.79448006  0.36098789     0.04100
H435        H  0.74936221  0.76640446  0.38497972     0.09300
H436        H  0.82748013  0.80073590  0.34572928     0.08100
N437        N  0.14603096  0.80126857  0.42077911    -0.26300
N438        N  0.12327635  0.81022349  0.40521026    -0.34200
C439        C  0.12773694  0.80268516  0.37705407     0.02000
C440        C  0.15474968  0.78860909  0.37480693     0.08100
C441        C  0.16582568  0.78831968  0.40286183    -0.05000
H442        H  0.11248384  0.80718553  0.35954506     0.08700
H443        H  0.18620311  0.77828400  0.40992702     0.09900
Cu444      Cu  0.08751347  0.83272786  0.42311260     0.44200
Cu445      Cu  0.14727662  0.80355749  0.46608054     0.42000
Cu446      Cu  0.08195170  0.83301673  0.50189431     0.43900
N447        N  0.05684595  0.85783000  0.44629526    -0.33700
N448        N  0.05489650  0.85817740  0.47509518    -0.27900
C449        C  0.03414381  0.87793590  0.48325994    -0.04000
C450        C  0.02251289  0.89060463  0.45840621     0.08200
C451        C  0.03737120  0.87727076  0.43539499     0.02000
H452        H  0.02832874  0.88306959  0.50564915     0.09600
H453        H  0.03470043  0.88182973  0.41242540     0.08700
N454        N  0.11458124  0.80926481  0.52335350    -0.35100
N455        N  0.13920797  0.80028320  0.51058947    -0.27300
C456        C  0.15635086  0.78702153  0.53049659    -0.02600
C457        C  0.14160365  0.78710249  0.55686590     0.06100
C458        C  0.11517496  0.80135988  0.55160879     0.04100
H459        H  0.17765001  0.77729040  0.52590882     0.09300
H460        H  0.09791404  0.80613135  0.56725597     0.08100
N461        N  0.77670331  0.11564142  0.49264660    -0.26300
N462        N  0.80000457  0.10599068  0.50695435    -0.34200
C463        C  0.79752342  0.11428849  0.53522597     0.02000
C464        C  0.77114985  0.12943592  0.53876208     0.08100
C465        C  0.75850093  0.12962850  0.51140555    -0.05000
H466        H  0.81321162  0.10886089  0.55208263     0.08700
H467        H  0.73769622  0.13954510  0.50547392     0.09900
Cu468      Cu  0.83243155  0.07996859  0.48687471     0.44200
Cu469      Cu  0.77124687  0.11063509  0.44797721     0.42000
Cu470      Cu  0.82398314  0.06576328  0.40820910     0.43900
N471        N  0.85962427  0.05191355  0.46222369    -0.33700
N472        N  0.85681605  0.04701001  0.43383015    -0.27900
C473        C  0.87744140  0.02731432  0.42515355    -0.04000
C474        C  0.89380672  0.01919977  0.44924022     0.08200
C475        C  0.88188925  0.03520956  0.47231853     0.02000
H476        H  0.87975213  0.01885126  0.40309935     0.09600
H477        H  0.88857744  0.03439118  0.49493459     0.08700
N478        N  0.78974891  0.08866863  0.38831946    -0.35100
N479        N  0.77119418  0.10586036  0.40294264    -0.27300
C480        C  0.75357674  0.11983994  0.38395728    -0.02600
C481        C  0.76115789  0.11074531  0.35602608     0.06100
C482        C  0.78397115  0.09079036  0.35959221     0.04100
H483        H  0.73671789  0.13567466  0.39005813     0.09300
H484        H  0.79634282  0.07969819  0.34250979     0.08100
N485        N  0.13865693  0.11563158  0.40778124    -0.26300
N486        N  0.12180518  0.09637929  0.39383650    -0.34200
C487        C  0.12775364  0.09750243  0.36509307     0.02000
C488        C  0.14894963  0.11884196  0.36068328     0.08100
C489        C  0.15537372  0.12992573  0.38821977    -0.05000
H490        H  0.11689440  0.08429528  0.34855014     0.08700
H491        H  0.17119363  0.14690250  0.39370214     0.09900
Cu492      Cu  0.09015200  0.07081563  0.41431796     0.44200
Cu493      Cu  0.13833894  0.12121639  0.45282501     0.42000
Cu494      Cu  0.08107814  0.08215739  0.49213771     0.43900
N495        N  0.05890858  0.04901598  0.43920831    -0.33700
N496        N  0.05567088  0.05297841  0.46766424    -0.27900
C497        C  0.03416580  0.03510377  0.47724830    -0.04000
C498        C  0.02326327  0.01929677  0.45364836     0.08200
C499        C  0.03940971  0.02870962  0.42990135     0.02000
H500        H  0.02710666  0.03363994  0.49973812     0.09600
H501        H  0.03741538  0.02108307  0.40754253     0.08700
N502        N  0.11114177  0.11045988  0.51188280    -0.35100
N503        N  0.13283505  0.12354636  0.49778790    -0.27300
C504        C  0.14918760  0.13897572  0.51704223    -0.02600
C505        C  0.13692254  0.13573205  0.54446633     0.06100
C506        C  0.11275382  0.11773655  0.54037273     0.04100
H507        H  0.16811073  0.15218250  0.51135908     0.09300
H508        H  0.09767247  0.11015177  0.55693927     0.08100
O509        O  0.92653474  0.92517739  0.47753088    -0.72000
O510        O  0.98918570  0.98802853  0.47791054    -0.72900
O511        O  0.92663480  0.98820442  0.47545133    -0.61600
O512        O  0.98900435  0.92497346  0.48017096    -0.70000
O513        O  0.99124432  0.92296725  0.43181169    -0.69500
O514        O  0.92820274  0.98579981  0.42708492    -0.60800
O515        O  0.99104252  0.98580602  0.42953488    -0.73300
O516        O  0.92891439  0.92295938  0.42917135    -0.72100
Cu517      Cu  0.95776502  0.95671114  0.47945224     1.04600
Cu518      Cu  0.95992685  0.95435823  0.42771868     1.04300
C519        C  0.91807845  0.91401971  0.45323297     0.94200
C520        C  0.00003824  0.99670720  0.45373146     0.93400
C521        C  0.91739942  0.99678142  0.45060609     0.85500
C522        C  0.99986818  0.91393320  0.45672839     0.91800
C523        C  0.16141501  0.12773270  0.33231659    -0.15400
C524        C  0.17103122  0.15533436  0.32771765    -0.30600
H525        H  0.16082867  0.11189265  0.31435933     0.13600
H526        H  0.16906262  0.17190558  0.34493390     0.14200
C527        C  0.33453478  0.12325333  0.14726404    -0.15400
C528        C  0.31191950  0.13430899  0.13195394    -0.30600
H529        H  0.33375042  0.12377071  0.17095742     0.13600
H530        H  0.31379888  0.13647473  0.10844054     0.14200
C531        C  0.16387271  0.32472362  0.16241355    -0.15400
C532        C  0.15375409  0.32995060  0.13545287    -0.30600
H533        H  0.16141475  0.34154172  0.17933271     0.13600
H534        H  0.15394323  0.31232111  0.11918496     0.14200
C535        C  0.57348118  0.12861856  0.14743979    -0.15400
C536        C  0.59590248  0.14031870  0.13240129    -0.30600
H537        H  0.57403300  0.12883071  0.17114236     0.13600
H538        H  0.59420307  0.14280644  0.10891294     0.14200
C539        C  0.74868794  0.33614932  0.13932289    -0.15400
C540        C  0.74090406  0.32999563  0.16685684    -0.30600
H541        H  0.74840956  0.31872326  0.12284010     0.13600
H542        H  0.74377060  0.34654039  0.18395045     0.14200
C543        C  0.74020298  0.14951168  0.32502227    -0.15400
C544        C  0.74906424  0.12135653  0.32812078    -0.30600
H545        H  0.74253598  0.16503722  0.34310454     0.13600
H546        H  0.74954534  0.10653480  0.30932853     0.14200
C547        C  0.75993426  0.58240221  0.15193922    -0.15400
C548        C  0.73182439  0.58921716  0.15793855    -0.30600
H549        H  0.77675808  0.59929151  0.15397946     0.13600
H550        H  0.71460647  0.57323665  0.15338156     0.14200
C551        C  0.55618915  0.75848939  0.13724756    -0.15400
C552        C  0.57940159  0.77460577  0.14581112    -0.30600
H553        H  0.55508821  0.73519864  0.14268663     0.13600
H554        H  0.57944060  0.79839903  0.14280146     0.14200
C555        C  0.74792970  0.76948796  0.31704724    -0.15400
C556        C  0.77597271  0.76789634  0.32587035    -0.30600
H557        H  0.73154402  0.77978740  0.33116405     0.13600
H558        H  0.79292959  0.76034888  0.31079786     0.14200
C559        C  0.15453982  0.58063937  0.16677779    -0.15400
C560        C  0.14901388  0.57372701  0.13880759    -0.30600
H561        H  0.14893623  0.56508661  0.18381074     0.13600
H562        H  0.15183527  0.59034240  0.12208203     0.14200
C563        C  0.31887390  0.76592400  0.12281903    -0.15400
C564        C  0.31613735  0.75972907  0.15128180    -0.30600
H565        H  0.29996188  0.76426931  0.10845897     0.13600
H566        H  0.33432158  0.76409432  0.16604280     0.14200
C567        C  0.15277564  0.76220458  0.32760465    -0.15400
C568        C  0.16870732  0.77546612  0.34859092    -0.30600
H569        H  0.12907682  0.76051246  0.33005284     0.13600
H570        H  0.19256399  0.77469096  0.34761591     0.14200
C571        C  0.14303657  0.57414622  0.75520269    -0.15400
C572        C  0.14092496  0.56701965  0.78343509    -0.30600
H573        H  0.13476634  0.55912865  0.73851131     0.13600
H574        H  0.14643437  0.58324990  0.80017360     0.14200
C575        C  0.13481066  0.76089061  0.60330191    -0.15400
C576        C  0.15254539  0.77490680  0.58455025    -0.30600
H577        H  0.11183360  0.75744937  0.59783498     0.13600
H578        H  0.17606526  0.77561544  0.58860018     0.14200
C579        C  0.29858346  0.76013727  0.77708859    -0.15400
C580        C  0.32243340  0.74375516  0.78304475    -0.30600
H581        H  0.29998697  0.78410876  0.77778417     0.13600
H582        H  0.32198778  0.71999497  0.77934889     0.14200
C583        C  0.14642102  0.14938144  0.57222287    -0.15400
C584        C  0.17486885  0.15444502  0.57818024    -0.30600
H585        H  0.12979206  0.15389473  0.58873358     0.13600
H586        H  0.19177093  0.14729317  0.56286779     0.14200
C587        C  0.34829107  0.15028533  0.75326210    -0.15400
C588        C  0.32266822  0.15337141  0.76764196    -0.30600
H589        H  0.34991688  0.15735190  0.73072878     0.13600
H590        H  0.32155938  0.14890366  0.79086191     0.14200
C591        C  0.14598253  0.31787690  0.75455807    -0.15400
C592        C  0.14023908  0.32399376  0.78270234    -0.30600
H593        H  0.13992510  0.33372857  0.73793590     0.13600
H594        H  0.14385976  0.30719100  0.79909625     0.14200
C595        C  0.59657143  0.16319230  0.75222008    -0.15400
C596        C  0.59005782  0.13434919  0.75463861    -0.30600
H597        H  0.58079729  0.17972332  0.75966120     0.13600
H598        H  0.60673916  0.11774138  0.74986545     0.14200
C599        C  0.75777639  0.14156705  0.56577006    -0.15400
C600        C  0.77348090  0.15613509  0.58608427    -0.30600
H601        H  0.73399286  0.14065109  0.56778890     0.13600
H602        H  0.79682450  0.15977306  0.58263572     0.14200
C603        C  0.75883425  0.34282981  0.74170922    -0.15400
C604        C  0.75956692  0.34971079  0.77024714    -0.30600
H605        H  0.76872802  0.35761880  0.72597556     0.13600
H606        H  0.75225447  0.33361806  0.78611424     0.14200
C607        C  0.58760151  0.75748264  0.75916245    -0.15400
C608        C  0.56096276  0.75755583  0.74658954    -0.30600
H609        H  0.58979875  0.76364196  0.78202624     0.13600
H610        H  0.55827934  0.74866299  0.72464662     0.14200
C611        C  0.76724378  0.59790213  0.74853588    -0.15400
C612        C  0.77155312  0.59189200  0.77685399    -0.30600
H613        H  0.77400422  0.58187708  0.73201597     0.13600
H614        H  0.76712251  0.60874476  0.79334430     0.14200
C615        C  0.73705486  0.75688585  0.57017473    -0.15400
C616        C  0.76548266  0.76270191  0.56475622    -0.30600
H617        H  0.72028080  0.76403049  0.55491430     0.13600
H618        H  0.78191024  0.75805986  0.58128916     0.14200
loop_ 
_geom_bond_atom_site_label_1 
_geom_bond_atom_site_label_2 
_geom_bond_distance 
_geom_bond_site_symmetry_2 
_ccdc_geom_bond_type 
N1            N2   1.324       .  A
N1            C5   1.345       .  A
N1           Cu9   2.082       .  S
N2            C3   1.347       .  A
N2           Cu8   2.081       .  S
C3            C4   1.384       .  A
C3            H6   1.082       .  S
C4            C5   1.381       .  A
C4          C607   1.474       .  S
C5            H7   1.082       .  S
Cu8          N11   2.081       .  S
Cu9          N19   2.082       .  S
Cu10         N12   2.079       .  S
Cu10         N18   2.079       .  S
N11          N12   1.322       .  A
N11          C15   1.347       .  A
N12          C13   1.346       .  A
C13          C14   1.386       .  A
C13          H16   1.082       .  S
C14          C15   1.383       .  A
C14         C615   1.479       .  S
C15          H17   1.082       .  S
N18          N19   1.322       .  A
N18          C22   1.345       .  A
N19          C20   1.349       .  A
C20          C21   1.387       .  A
C20          H23   1.082       .  S
C21          C22   1.382       .  A
C21         C611   1.479       .  S
C22          H24   1.082       .  S
N25          N26   1.323       .  A
N25          C29   1.347       .  A
N25         Cu33   2.082       .  S
N26          C27   1.347       .  A
N26         Cu32   2.087       .  S
C27          C28   1.386       .  A
C27          H30   1.082       .  S
C28          C29   1.383       .  A
C28         C600   1.481       .  S
C29          H31   1.082       .  S
Cu32         N35   2.087       .  S
Cu33         N43   2.082       .  S
Cu34         N36   2.082       .  S
Cu34         N42   2.081       .  S
N35          N36   1.323       .  A
N35          C39   1.349       .  A
N36          C37   1.346       .  A
C37          C38   1.383       .  A
C37          H40   1.082       .  S
C38          C39   1.386       .  A
C38         C595   1.479       .  S
C39          H41   1.082       .  S
N42          N43   1.323       .  A
N42          C46   1.346       .  A
N43          C44   1.347       .  A
C44          C45   1.382       .  A
C44          H47   1.082       .  S
C45          C46   1.385       .  A
C45         C603   1.478       .  S
C46          H48   1.082       .  S
N49          N50   1.323       .  A
N49          C53   1.344       .  A
N49         Cu57   2.070       .  S
N50          C51   1.348       .  A
N50         Cu56   2.088       .  S
C51          C52   1.387       .  A
C51          H54   1.082       .  S
C52          C53   1.380       .  A
C52         C591   1.477       .  S
C53          H55   1.082       .  S
Cu56         N59   2.088       .  S
Cu57         N67   2.070       .  S
Cu58         N60   2.077       .  S
Cu58         N66   2.076       .  S
N59          N60   1.324       .  A
N59          C63   1.348       .  A
N60          C61   1.345       .  A
C61          C62   1.383       .  A
C61          H64   1.082       .  S
C62          C63   1.384       .  A
C62         C588   1.478       .  S
C63          H65   1.082       .  S
N66          N67   1.321       .  A
N66          C70   1.346       .  A
N67          C68   1.345       .  A
C68          C69   1.384       .  A
C68          H71   1.082       .  S
C69          C70   1.383       .  A
C69         C584   1.475       .  S
C70          H72   1.082       .  S
N73          N74   1.323       .  A
N73          C77   1.345       .  A
N73         Cu81   2.077       .  S
N74          C75   1.345       .  A
N74         Cu80   2.074       .  S
C75          C76   1.383       .  A
C75          H78   1.082       .  S
C76          C77   1.381       .  A
C76         C571   1.473       .  S
C77          H79   1.082       .  S
Cu80         N83   2.074       .  S
Cu81         N91   2.078       .  S
Cu82         N84   2.073       .  S
Cu82         N90   2.074       .  S
N83          N84   1.322       .  A
N83          C87   1.346       .  A
N84          C85   1.344       .  A
C85          C86   1.380       .  A
C85          H88   1.082       .  S
C86          C87   1.385       .  A
C86         C579   1.473       .  S
C87          H89   1.082       .  S
N90          N91   1.322       .  A
N90          C94   1.345       .  A
N91          C92   1.347       .  A
C92          C93   1.383       .  A
C92          H95   1.082       .  S
C93          C94   1.384       .  A
C93         C575   1.476       .  S
C94          H96   1.082       .  S
N97          N98   1.324       .  A
N97         C101   1.347       .  A
N97        Cu105   2.084       .  S
N98          C99   1.344       .  A
N98        Cu104   2.077       .  S
C99         C100   1.380       .  A
C99         H102   1.082       .  S
C100        C101   1.385       .  A
C100        C564   1.473       .  S
C101        H103   1.082       .  S
Cu104       N107   2.076       .  S
Cu105       N115   2.084       .  S
Cu106       N108   2.074       .  S
Cu106       N114   2.074       .  S
N107        N108   1.321       .  A
N107        C111   1.347       .  A
N108        C109   1.346       .  A
C109        C110   1.382       .  A
C109        H112   1.082       .  S
C110        C111   1.385       .  A
C110        C567   1.477       .  S
C111        H113   1.082       .  S
N114        N115   1.323       .  A
N114        C118   1.345       .  A
N115        C116   1.348       .  A
C116        C117   1.386       .  A
C116        H119   1.082       .  S
C117        C118   1.380       .  A
C117        C559   1.476       .  S
C118        H120   1.082       .  S
N121        N122   1.322       .  A
N121        C125   1.345       .  A
N121       Cu129   2.071       .  S
N122        C123   1.346       .  A
N122       Cu128   2.082       .  S
C123        C124   1.386       .  A
C123        H126   1.082       .  S
C124        C125   1.381       .  A
C124        C548   1.477       .  S
C125        H127   1.082       .  S
Cu128       N131   2.082       .  S
Cu129       N139   2.070       .  S
Cu130       N132   2.074       .  S
Cu130       N138   2.073       .  S
N131        N132   1.323       .  A
N131        C135   1.347       .  A
N132        C133   1.344       .  A
C133        C134   1.380       .  A
C133        H136   1.082       .  S
C134        C135   1.385       .  A
C134        C555   1.475       .  S
C135        H137   1.082       .  S
N138        N139   1.321       .  A
N138        C142   1.347       .  A
N139        C140   1.343       .  A
C140        C141   1.384       .  A
C140        H143   1.082       .  S
C141        C142   1.383       .  A
C141        C552   1.476       .  S
C142        H144   1.082       .  S
N145        N146   1.323       .  A
N145        C149   1.347       .  A
N145       Cu153   2.080       .  S
N146        C147   1.346       .  A
N146       Cu152   2.081       .  S
C147        C148   1.385       .  A
C147        H150   1.082       .  S
C148        C149   1.382       .  A
C148        C540   1.478       .  S
C149        H151   1.082       .  S
Cu152       N155   2.081       .  S
Cu153       N163   2.079       .  S
Cu154       N156   2.077       .  S
Cu154       N162   2.076       .  S
N155        N156   1.323       .  A
N155        C159   1.347       .  A
N156        C157   1.345       .  A
C157        C158   1.384       .  A
C157        H160   1.082       .  S
C158        C159   1.383       .  A
C158        C536   1.477       .  S
C159        H161   1.082       .  S
N162        N163   1.323       .  A
N162        C166   1.347       .  A
N163        C164   1.345       .  A
C164        C165   1.382       .  A
C164        H167   1.082       .  S
C165        C166   1.384       .  A
C165        C543   1.475       .  S
C166        H168   1.082       .  S
N169        N170   1.323       .  A
N169        C173   1.348       .  A
N169       Cu177   2.086       .  S
N170        C171   1.344       .  A
N170       Cu176   2.070       .  S
C171        C172   1.380       .  A
C171        H174   1.082       .  S
C172        C173   1.387       .  A
C172        C604   1.476       .  S
C173        H175   1.082       .  S
Cu176       N179   2.069       .  S
Cu177       N187   2.086       .  S
Cu178       N180   2.082       .  S
Cu178       N186   2.082       .  S
N179        N180   1.322       .  A
N179        C183   1.346       .  A
N180        C181   1.345       .  A
C181        C182   1.385       .  A
C181        H184   1.082       .  S
C182        C183   1.382       .  A
C182        C277   1.471       .  S
C183        H185   1.082       .  S
N186        N187   1.324       .  A
N186        C190   1.347       .  A
N187        C188   1.347       .  A
C188        C189   1.386       .  A
C188        H191   1.082       .  S
C189        C190   1.383       .  A
C189        C612   1.481       .  S
C190        H192   1.082       .  S
N193        N194   1.322       .  A
N193        C197   1.347       .  A
N193       Cu201   2.082       .  S
N194        C195   1.343       .  A
N194       Cu200   2.062       .  S
C195        C196   1.378       .  A
C195        H198   1.082       .  S
C196        C197   1.385       .  A
C196        C572   1.471       .  S
C197        H199   1.082       .  S
Cu200       N203   2.062       .  S
Cu201       N211   2.083       .  S
Cu202       N204   2.080       .  S
Cu202       N210   2.081       .  S
N203        N204   1.321       .  A
N203        C207   1.344       .  A
N204        C205   1.347       .  A
C205        C206   1.386       .  A
C205        H208   1.082       .  S
C206        C207   1.381       .  A
C206        C276   1.469   1_455  S
C207        H209   1.082       .  S
N210        N211   1.324       .  A
N210        C214   1.346       .  A
N211        C212   1.347       .  A
C212        C213   1.386       .  A
C212        H215   1.082       .  S
C213        C214   1.381       .  A
C213        C592   1.478       .  S
C214        H216   1.082       .  S
N217        N218   1.324       .  A
N217        C221   1.349       .  A
N217       Cu225   2.089       .  S
N218        C219   1.344       .  A
N218       Cu224   2.072       .  S
C219        C220   1.379       .  A
C219        H222   1.082       .  S
C220        C221   1.387       .  A
C220        C547   1.475       .  S
C221        H223   1.082       .  S
Cu224       N227   2.072       .  S
Cu225       N235   2.089       .  S
Cu226       N228   2.072       .  S
Cu226       N234   2.072       .  S
N227        N228   1.321       .  A
N227        C231   1.347       .  A
N228        C229   1.344       .  A
C229        C230   1.383       .  A
C229        H232   1.082       .  S
C230        C231   1.384       .  A
C230        C275   1.470       .  S
C231        H233   1.082       .  S
N234        N235   1.323       .  A
N234        C238   1.344       .  A
N235        C236   1.349       .  A
C236        C237   1.387       .  A
C236        H239   1.082       .  S
C237        C238   1.379       .  A
C237        C539   1.476       .  S
C238        H240   1.082       .  S
N241        N242   1.324       .  A
N241        C245   1.348       .  A
N241       Cu249   2.087       .  S
N242        C243   1.345       .  A
N242       Cu248   2.076       .  S
C243        C244   1.381       .  A
C243        H246   1.082       .  S
C244        C245   1.387       .  A
C244        C532   1.479       .  S
C245        H247   1.082       .  S
Cu248       N251   2.075       .  S
Cu249       N259   2.086       .  S
Cu250       N252   2.072       .  S
Cu250       N258   2.072       .  S
N251        N252   1.322       .  A
N251        C255   1.347       .  A
N252        C253   1.343       .  A
C253        C254   1.383       .  A
C253        H256   1.082       .  S
C254        C255   1.384       .  A
C254        C278   1.470   1_455  S
C255        H257   1.082       .  S
N258        N259   1.323       .  A
N258        C262   1.345       .  A
N259        C260   1.348       .  A
C260        C261   1.386       .  A
C260        H263   1.082       .  S
C261        C262   1.380       .  A
C261        C560   1.476       .  S
C262        H264   1.082       .  S
O265       Cu273   2.018       .  S
O265        C275   1.279   1_556  A
O266       Cu273   2.015       .  S
O266        C276   1.279       .  A
O267       Cu273   2.001       .  S
O267        C277   1.276       .  A
O268       Cu273   1.998       .  S
O268        C278   1.276   1_556  A
O269       Cu274   2.024       .  S
O269        C278   1.280   1_556  A
O270       Cu274   2.024       .  S
O270        C277   1.280       .  A
O271       Cu274   2.005       .  S
O271        C276   1.276       .  A
O272       Cu274   2.005       .  S
O272        C275   1.277   1_556  A
Cu273      Cu274   2.375       .  S
N279        N280   1.322       .  A
N279        C283   1.345       .  A
N279       Cu287   2.078       .  S
N280        C281   1.346       .  A
N280       Cu286   2.073       .  S
C281        C282   1.384       .  A
C281        H284   1.082       .  S
C282        C283   1.381       .  A
C282        C580   1.474       .  S
C283        H285   1.082       .  S
Cu286       N289   2.073       .  S
Cu287       N297   2.078       .  S
Cu288       N290   2.068       .  S
Cu288       N296   2.068       .  S
N289        N290   1.323       .  A
N289        C293   1.344       .  A
N290        C291   1.345       .  A
C291        C292   1.381       .  A
C291        H294   1.082       .  S
C292        C293   1.382       .  A
C292        C385   1.466       .  S
C293        H295   1.082       .  S
N296        N297   1.322       .  A
N296        C300   1.344       .  A
N297        C298   1.346       .  A
C298        C299   1.383       .  A
C298        H301   1.082       .  S
C299        C300   1.383       .  A
C299        C608   1.475       .  S
C300        H302   1.082       .  S
N303        N304   1.323       .  A
N303        C307   1.347       .  A
N303       Cu311   2.082       .  S
N304        C305   1.348       .  A
N304       Cu310   2.087       .  S
C305        C306   1.384       .  A
C305        H308   1.082       .  S
C306        C307   1.385       .  A
C306        C596   1.481       .  S
C307        H309   1.082       .  S
Cu310       N313   2.087       .  S
Cu311       N321   2.082       .  S
Cu312       N314   2.077       .  S
Cu312       N320   2.076       .  S
N313        N314   1.324       .  A
N313        C317   1.347       .  A
N314        C315   1.346       .  A
C315        C316   1.383       .  A
C315        H318   1.082       .  S
C316        C317   1.385       .  A
C316        C387   1.473   1_545  S
C317        H319   1.082       .  S
N320        N321   1.323       .  A
N320        C324   1.347       .  A
N321        C322   1.346       .  A
C322        C323   1.383       .  A
C322        H325   1.082       .  S
C323        C324   1.385       .  A
C323        C587   1.477       .  S
C324        H326   1.082       .  S
N327        N328   1.322       .  A
N327        C331   1.342       .  A
N327       Cu335   2.061       .  S
N328        C329   1.349       .  A
N328       Cu334   2.086       .  S
C329        C330   1.386       .  A
C329        H332   1.082       .  S
C330        C331   1.381       .  A
C330        C563   1.476       .  S
C331        H333   1.082       .  S
Cu334       N337   2.087       .  S
Cu335       N345   2.060       .  S
Cu336       N338   2.083       .  S
Cu336       N344   2.081       .  S
N337        N338   1.325       .  A
N337        C341   1.347       .  A
N338        C339   1.346       .  A
C339        C340   1.383       .  A
C339        H342   1.082       .  S
C340        C341   1.384       .  A
C340        C388   1.473   1_554  S
C341        H343   1.082       .  S
N344        N345   1.321       .  A
N344        C348   1.348       .  A
N345        C346   1.342       .  A
C346        C347   1.378       .  A
C346        H349   1.082       .  S
C347        C348   1.386       .  A
C347        C551   1.472       .  S
C348        H350   1.082       .  S
N351        N352   1.322       .  A
N351        C355   1.345       .  A
N351       Cu359   2.078       .  S
N352        C353   1.348       .  A
N352       Cu358   2.079       .  S
C353        C354   1.386       .  A
C353        H356   1.082       .  S
C354        C355   1.382       .  A
C354        C527   1.478       .  S
C355        H357   1.082       .  S
Cu358       N361   2.080       .  S
Cu359       N369   2.078       .  S
Cu360       N362   2.080       .  S
Cu360       N368   2.080       .  S
N361        N362   1.324       .  A
N361        C365   1.344       .  A
N362        C363   1.348       .  A
C363        C364   1.384       .  A
C363        H366   1.082       .  S
C364        C365   1.382       .  A
C364        C386   1.471   1_544  S
C365        H367   1.082       .  S
N368        N369   1.323       .  A
N368        C372   1.348       .  A
N369        C370   1.345       .  A
C370        C371   1.381       .  A
C370        H373   1.082       .  S
C371        C372   1.385       .  A
C371        C535   1.476       .  S
C372        H374   1.082       .  S
O375       Cu383   1.999       .  S
O375        C385   1.276       .  A
O376       Cu383   2.004       .  S
O376        C386   1.277       .  A
O377       Cu383   2.015       .  S
O377        C387   1.278       .  A
O378       Cu383   2.014       .  S
O378        C388   1.278       .  A
O379       Cu384   2.017       .  S
O379        C388   1.279       .  A
O380       Cu384   2.015       .  S
O380        C387   1.278       .  A
O381       Cu384   2.020       .  S
O381        C386   1.279       .  A
O382       Cu384   2.013       .  S
O382        C385   1.278       .  A
Cu383      Cu384   2.375       .  S
N389        N390   1.322       .  A
N389        C393   1.344       .  A
N389       Cu397   2.073       .  S
N390        C391   1.348       .  A
N390       Cu396   2.080       .  S
C391        C392   1.386       .  A
C391        H394   1.082       .  S
C392        C393   1.381       .  A
C392        C524   1.476       .  S
C393        H395   1.082       .  S
Cu396       N399   2.081       .  S
Cu397       N407   2.073       .  S
Cu398       N400   2.087       .  S
Cu398       N406   2.087       .  S
N399        N400   1.324       .  A
N399        C403   1.346       .  A
N400        C401   1.347       .  A
C401        C402   1.383       .  A
C401        H404   1.082       .  S
C402        C403   1.385       .  A
C402        C528   1.480       .  S
C403        H405   1.082       .  S
N406        N407   1.323       .  A
N406        C410   1.348       .  A
N407        C408   1.344       .  A
C408        C409   1.380       .  A
C408        H411   1.082       .  S
C409        C410   1.388       .  A
C409        C531   1.478       .  S
C410        H412   1.082       .  S
N413        N414   1.323       .  A
N413        C417   1.348       .  A
N413       Cu421   2.086       .  S
N414        C415   1.345       .  A
N414       Cu420   2.080       .  S
C415        C416   1.381       .  A
C415        H418   1.082       .  S
C416        C417   1.386       .  A
C416        C616   1.478       .  S
C417        H419   1.082       .  S
Cu420       N423   2.079       .  S
Cu421       N431   2.085       .  S
Cu422       N424   2.069       .  S
Cu422       N430   2.069       .  S
N423        N424   1.322       .  A
N423        C427   1.347       .  A
N424        C425   1.344       .  A
C425        C426   1.383       .  A
C425        H428   1.082       .  S
C426        C427   1.385       .  A
C426        C519   1.470       .  S
C427        H429   1.082       .  S
N430        N431   1.323       .  A
N430        C434   1.345       .  A
N431        C432   1.347       .  A
C432        C433   1.386       .  A
C432        H435   1.082       .  S
C433        C434   1.379       .  A
C433        C556   1.474       .  S
C434        H436   1.082       .  S
N437        N438   1.323       .  A
N437        C441   1.346       .  A
N437       Cu445   2.079       .  S
N438        C439   1.346       .  A
N438       Cu444   2.079       .  S
C439        C440   1.385       .  A
C439        H442   1.082       .  S
C440        C441   1.382       .  A
C440        C568   1.477       .  S
C441        H443   1.082       .  S
Cu444       N447   2.079       .  S
Cu445       N455   2.079       .  S
Cu446       N448   2.084       .  S
Cu446       N454   2.083       .  S
N447        N448   1.323       .  A
N447        C451   1.346       .  A
N448        C449   1.347       .  A
C449        C450   1.385       .  A
C449        H452   1.082       .  S
C450        C451   1.384       .  A
C450        C522   1.474   1_455  S
C451        H453   1.082       .  S
N454        N455   1.323       .  A
N454        C458   1.347       .  A
N455        C456   1.346       .  A
C456        C457   1.381       .  A
C456        H459   1.082       .  S
C457        C458   1.385       .  A
C457        C576   1.475       .  S
C458        H460   1.082       .  S
N461        N462   1.322       .  A
N461        C465   1.344       .  A
N461       Cu469   2.073       .  S
N462        C463   1.350       .  A
N462       Cu468   2.090       .  S
C463        C464   1.388       .  A
C463        H466   1.082       .  S
C464        C465   1.381       .  A
C464        C599   1.478       .  S
C465        H467   1.082       .  S
Cu468       N471   2.091       .  S
Cu469       N479   2.073       .  S
Cu470       N472   2.085       .  S
Cu470       N478   2.083       .  S
N471        N472   1.324       .  A
N471        C475   1.347       .  A
N472        C473   1.348       .  A
C473        C474   1.384       .  A
C473        H476   1.082       .  S
C474        C475   1.384       .  A
C474        C521   1.475   1_545  S
C475        H477   1.082       .  S
N478        N479   1.322       .  A
N478        C482   1.347       .  A
N479        C480   1.345       .  A
C480        C481   1.383       .  A
C480        H483   1.082       .  S
C481        C482   1.384       .  A
C481        C544   1.477       .  S
C482        H484   1.082       .  S
N485        N486   1.322       .  A
N485        C489   1.346       .  A
N485       Cu493   2.078       .  S
N486        C487   1.346       .  A
N486       Cu492   2.078       .  S
C487        C488   1.382       .  A
C487        H490   1.081       .  S
C488        C489   1.385       .  A
C488        C523   1.478       .  S
C489        H491   1.082       .  S
Cu492       N495   2.078       .  S
Cu493       N503   2.077       .  S
Cu494       N496   2.078       .  S
Cu494       N502   2.078       .  S
N495        N496   1.323       .  A
N495        C499   1.345       .  A
N496        C497   1.347       .  A
C497        C498   1.384       .  A
C497        H500   1.082       .  S
C498        C499   1.383       .  A
C498        C520   1.472   1_545  S
C499        H501   1.082       .  S
N502        N503   1.323       .  A
N502        C506   1.346       .  A
N503        C504   1.346       .  A
C504        C505   1.384       .  A
C504        H507   1.082       .  S
C505        C506   1.382       .  A
C505        C583   1.474       .  S
C506        H508   1.081       .  S
O509       Cu517   2.017       .  S
O509        C519   1.278       .  A
O510       Cu517   2.017       .  S
O510        C520   1.278   1_655  A
O511       Cu517   2.015       .  S
O511        C521   1.278       .  A
O512       Cu517   2.017       .  S
O512        C522   1.278       .  A
O513       Cu518   2.018       .  S
O513        C522   1.279       .  A
O514       Cu518   2.023       .  S
O514        C521   1.279       .  A
O515       Cu518   2.011       .  S
O515        C520   1.278   1_655  A
O516       Cu518   2.006       .  S
O516        C519   1.277       .  A
Cu517      Cu518   2.374       .  S
C523        C524   1.342       .  D
C523        H525   1.086       .  S
C524        H526   1.086       .  S
C527        C528   1.344       .  D
C527        H529   1.087       .  S
C528        H530   1.086       .  S
C531        C532   1.342       .  D
C531        H533   1.086       .  S
C532        H534   1.086       .  S
C535        C536   1.343       .  D
C535        H537   1.087       .  S
C536        H538   1.086       .  S
C539        C540   1.342       .  D
C539        H541   1.086       .  S
C540        H542   1.086       .  S
C543        C544   1.343       .  D
C543        H545   1.086       .  S
C544        H546   1.086       .  S
C547        C548   1.341       .  D
C547        H549   1.086       .  S
C548        H550   1.086       .  S
C551        C552   1.342       .  D
C551        H553   1.086       .  S
C552        H554   1.086       .  S
C555        C556   1.340       .  D
C555        H557   1.087       .  S
C556        H558   1.086       .  S
C559        C560   1.341       .  D
C559        H561   1.087       .  S
C560        H562   1.087       .  S
C563        C564   1.343       .  D
C563        H565   1.086       .  S
C564        H566   1.087       .  S
C567        C568   1.343       .  D
C567        H569   1.086       .  S
C568        H570   1.086       .  S
C571        C572   1.340       .  D
C571        H573   1.086       .  S
C572        H574   1.087       .  S
C575        C576   1.343       .  D
C575        H577   1.086       .  S
C576        H578   1.086       .  S
C579        C580   1.341       .  D
C579        H581   1.086       .  S
C580        H582   1.086       .  S
C583        C584   1.342       .  D
C583        H585   1.086       .  S
C584        H586   1.086       .  S
C587        C588   1.344       .  D
C587        H589   1.087       .  S
C588        H590   1.086       .  S
C591        C592   1.342       .  D
C591        H593   1.087       .  S
C592        H594   1.086       .  S
C595        C596   1.344       .  D
C595        H597   1.086       .  S
C596        H598   1.086       .  S
C599        C600   1.343       .  D
C599        H601   1.086       .  S
C600        H602   1.086       .  S
C603        C604   1.342       .  D
C603        H605   1.086       .  S
C604        H606   1.087       .  S
C607        C608   1.342       .  D
C607        H609   1.086       .  S
C608        H610   1.087       .  S
C611        C612   1.343       .  D
C611        H613   1.086       .  S
C612        H614   1.086       .  S
C615        C616   1.343       .  D
C615        H617   1.086       .  S
C616        H618   1.087       .  S
