geometry optimzed in LAMMPS
_audit_creation_date              2020-12-01 
_audit_creation_method            'lammps2cif' 
_symmetry_space_group_name_H-M    'P1' 
_symmetry_Int_Tables_number       1 
_symmetry_cell_setting            triclinic 
loop_ 
_symmetry_equiv_pos_as_xyz 
  x,y,z 
_cell_length_a                    39.35162918 
_cell_length_b                    38.9349904924806 
_cell_length_c                    39.848431189668226 
_cell_angle_alpha                 89.86989130547076 
_cell_angle_beta                  89.92418665412403 
_cell_angle_gamma                 90.0733005807371 
loop_ 
_atom_site_label 
_atom_site_type_symbol 
_atom_site_fract_x 
_atom_site_fract_y 
_atom_site_fract_z 
_atom_site_charge 
O1          O  0.43810616  0.43322777  0.93337155    -0.74500
O2          O  0.46843644  0.46472588  0.89559968    -0.53400
C3          C  0.44576141  0.44229260  0.90314665     0.79200
O4          O  0.44247629  0.56556132  0.05048918    -0.59100
O5          O  0.47408244  0.53417257  0.08754517    -0.52100
C6          C  0.45153274  0.55690011  0.08035355     0.71200
O7          O  0.43845396  0.56536147  0.93722560    -0.73700
O8          O  0.46947923  0.53808586  0.89696516    -0.54200
C9          C  0.44609658  0.55889063  0.90645244     0.77300
O10         O  0.44248578  0.42893647  0.04658678    -0.58800
O11         O  0.47348529  0.45757838  0.08591320    -0.51900
C12         C  0.45089178  0.43554411  0.07706507     0.73800
Zr13       Zr  0.45669967  0.44785606  0.99019063     2.54700
O14         O  0.39502271  0.45188378  0.99293786    -0.79400
O15         O  0.45397767  0.38543548  0.98779980    -0.92800
Zr16       Zr  0.45753948  0.54943722  0.99331234     2.64700
O17         O  0.39570875  0.54737764  0.99612246    -0.97700
O18         O  0.45885404  0.61196459  0.99108924    -0.79800
O19         O  0.45577165  0.49973534  0.95919324    -0.83200
O20         O  0.45752511  0.49754362  0.02445921    -2.17900
O21         O  0.57583109  0.42677668  0.04414028    -0.66500
O22         O  0.54809301  0.45764484  0.08423370    -0.51100
C23         C  0.56958775  0.43459465  0.07498398     0.72200
O24         O  0.57521108  0.56673692  0.93532457    -0.59500
O25         O  0.54393610  0.53820255  0.89621161    -0.51400
C26         C  0.56684140  0.56000815  0.90484014     0.74000
O27         O  0.57639221  0.56383348  0.04753909    -0.70800
O28         O  0.54794763  0.53269164  0.08696216    -0.49500
C29         C  0.57009259  0.55536115  0.07811650     0.75400
O30         O  0.57296232  0.43183157  0.93092465    -0.66200
O31         O  0.54249200  0.46352915  0.89355738    -0.53400
C32         C  0.56477456  0.44062936  0.90082865     0.73800
Zr33       Zr  0.55779022  0.44645841  0.98845241     2.77500
O34         O  0.61956407  0.44878361  0.98560602    -0.96900
O35         O  0.55549260  0.38407199  0.98481456    -0.77700
Zr36       Zr  0.55825217  0.54880380  0.99132845     2.70100
O37         O  0.62005930  0.55031348  0.99293327    -0.79000
O38         O  0.55261603  0.61103128  0.99221190    -0.98100
Zr39       Zr  0.50680772  0.50018091  0.92722851     2.21500
Zr40       Zr  0.50973875  0.49621271  0.05493930     2.11100
O41         O  0.55995794  0.49662831  0.02191051    -2.46800
O42         O  0.55860578  0.49868591  0.95759478    -0.78800
O43         O  0.50786573  0.44534234  0.02181604    -0.71000
O44         O  0.50736994  0.55106851  0.95998655    -2.31900
O45         O  0.50667758  0.44720037  0.95708416    -2.28100
O46         O  0.50868434  0.54902427  0.02495904    -0.72700
H47         H  0.43833434  0.49719025  0.03944999     0.79300
H48         H  0.50722349  0.57136780  0.94594827     0.80300
H49         H  0.58001514  0.49611823  0.03583230     0.82600
H50         H  0.50608728  0.42790342  0.94201012     0.80200
H51         H  0.46956176  0.61901856  0.01246008     0.43200
H52         H  0.53817430  0.61577638  0.01203117     0.42200
H53         H  0.62598731  0.57462764  0.98851756     0.41900
H54         H  0.62445630  0.46819664  0.97023165     0.39800
H55         H  0.53935334  0.37709468  0.00265824     0.42900
H56         H  0.46937674  0.37757390  0.00586974     0.37700
H57         H  0.38703620  0.42792331  0.99021682     0.43800
H58         H  0.38923257  0.52949668  0.97968831     0.40200
H59         H  0.62678620  0.45715378  0.00792800     0.45200
H60         H  0.46593934  0.37925775  0.96679613     0.43900
H61         H  0.39042175  0.53697211  0.01821531     0.44000
H62         H  0.57542082  0.61952171  0.99860962     0.44400
O63         O  0.44863209  0.94183796  0.42579506    -0.74500
O64         O  0.47965931  0.90244735  0.45486081    -0.53400
C65         C  0.45746353  0.91083118  0.43263462     0.79200
O66         O  0.58062561  0.05908944  0.42552250    -0.59100
O67         O  0.55016189  0.09951055  0.45367527    -0.52100
C68         C  0.57300838  0.09045588  0.43215521     0.71200
O69         O  0.57638003  0.94304729  0.42214456    -0.73700
O70         O  0.55121508  0.90277010  0.45545806    -0.54200
C71         C  0.57053212  0.91166745  0.43086949     0.77300
O72         O  0.44014232  0.05678352  0.42938575    -0.58800
O73         O  0.47415730  0.09745600  0.45333746    -0.51900
C74         C  0.44937135  0.08804858  0.43445040     0.73800
Zr75       Zr  0.46161268  0.99991115  0.44359523     2.54700
O76         O  0.46204782  0.00194268  0.38256595    -0.79400
O77         O  0.39984959  0.99696818  0.44731638    -0.92800
Zr78       Zr  0.56247541  0.00134185  0.44070257     2.64700
O79         O  0.55728944  0.00655711  0.38004473    -0.97700
O80         O  0.62410618  0.99629083  0.43732678    -0.79800
O81         O  0.51259535  0.96754107  0.44191775    -0.83200
O82         O  0.51149982  0.03389456  0.44080360    -2.17900
O83         O  0.44327225  0.05655091  0.55645313    -0.66500
O84         O  0.47309162  0.09732999  0.52755767    -0.51100
C85         C  0.45034460  0.08789945  0.54895257     0.72200
O86         O  0.57964309  0.94659896  0.56192473    -0.59500
O87         O  0.55236721  0.90576993  0.53111561    -0.51400
C88         C  0.57272967  0.91518547  0.55458432     0.74000
O89         O  0.57841037  0.06160992  0.55628188    -0.70800
O90         O  0.54693213  0.10136697  0.52803447    -0.49500
C91         C  0.56972879  0.09268476  0.54949710     0.75400
O92         O  0.44862682  0.94162915  0.55967543    -0.66200
O93         O  0.47895559  0.90240749  0.52986514    -0.53400
C94         C  0.45677590  0.91056018  0.55216052     0.73800
Zr95       Zr  0.46395702  0.99974398  0.54245939     2.77500
O96         O  0.46802010  0.00145793  0.60340048    -0.96900
O97         O  0.40218325  0.99612819  0.54302237    -0.77700
Zr98       Zr  0.56493581  0.00306924  0.53997101     2.70100
O99         O  0.57355545  0.00695049  0.60033172    -0.79000
O100        O  0.62604647  0.00404957  0.53025521    -0.98100
Zr101      Zr  0.51498070  0.93539839  0.49260743     2.21500
Zr102      Zr  0.51217969  0.06720843  0.49082621     2.11100
O103        O  0.51349213  0.03455591  0.54163466    -2.46800
O104        O  0.51538905  0.96832640  0.54276496    -0.78800
O105        O  0.46170923  0.03346737  0.49288458    -0.71000
O106        O  0.56567004  0.96880292  0.49092618    -2.31900
O107        O  0.46274127  0.96621176  0.49315628    -2.28100
O108        O  0.56407886  0.03579644  0.48982435    -0.72700
H109        H  0.51079104  0.04846584  0.42116981     0.79300
H110        H  0.58562793  0.95427507  0.49072051     0.80300
H111        H  0.51320289  0.04938873  0.56108658     0.82600
H112        H  0.44348779  0.95074206  0.49355868     0.80200
H113        H  0.63281290  0.02013755  0.43655540     0.43200
H114        H  0.63320162  0.97972508  0.53168460     0.42200
H115        H  0.55264821  0.99698615  0.61021221     0.41900
H116        H  0.44633120  0.99146826  0.61145049     0.39800
H117        H  0.39604544  0.99519248  0.56711247     0.42900
H118        H  0.39503729  0.97645200  0.46125946     0.37700
H119        H  0.43960064  0.01148545  0.37638293     0.43800
H120        H  0.57382654  0.98990415  0.37085644     0.40200
H121        H  0.48533328  0.98393715  0.60901414     0.45200
H122        H  0.39236811  0.99047633  0.42448047     0.43900
H123        H  0.53477332  0.99653846  0.37486348     0.44000
H124        H  0.62856215  0.01004276  0.50622632     0.44400
O125        O  0.95445510  0.57041249  0.42317274    -0.74500
O126        O  0.91508602  0.53923738  0.45214073    -0.53400
C127        C  0.92363630  0.56130991  0.42955245     0.79200
O128        O  0.07134133  0.43874126  0.42694969    -0.59100
O129        O  0.10993880  0.46983239  0.45658411    -0.52100
C130        C  0.10201556  0.44713648  0.43461197     0.71200
O131        O  0.95690363  0.43677393  0.42488485    -0.73700
O132        O  0.91719703  0.46587245  0.45507325    -0.54200
C133        C  0.92599191  0.44373115  0.43288240     0.77300
O134        O  0.06911376  0.57600145  0.42849819    -0.58800
O135        O  0.10841310  0.54474050  0.45714544    -0.51900
C136        C  0.09996223  0.56806120  0.43594045     0.73800
Zr137      Zr  0.01174046  0.55756951  0.44290414     2.54700
O138        O  0.01412520  0.56140585  0.38200227    -0.79400
O139        O  0.00816256  0.61975336  0.44795404    -0.92800
Zr140      Zr  0.01349427  0.45528965  0.44144162     2.64700
O141        O  0.01353461  0.46125558  0.38055383    -0.97700
O142        O  0.01410452  0.39291881  0.43696746    -0.79800
O143        O  0.98002637  0.50583880  0.44084866    -0.83200
O144        O  0.04526761  0.50694512  0.44143360    -2.17900
O145        O  0.06814250  0.57446470  0.55821971    -0.66500
O146        O  0.10766071  0.54263738  0.53023769    -0.51100
C147        C  0.09894899  0.56552630  0.55168036     0.72200
O148        O  0.95548614  0.43812245  0.55975581    -0.59500
O149        O  0.91673011  0.46721616  0.52833386    -0.51400
C150        C  0.92480380  0.44578746  0.55149919     0.74000
O151        O  0.06965283  0.43825527  0.55823351    -0.70800
O152        O  0.10882749  0.46901784  0.52870680    -0.49500
C153        C  0.10041982  0.44622459  0.55052139     0.75400
O154        O  0.95301321  0.56997765  0.55939369    -0.66200
O155        O  0.91452275  0.54053416  0.52795340    -0.53400
C156        C  0.92235828  0.56198230  0.55115308     0.73800
Zr157      Zr  0.01095059  0.55640992  0.54222965     2.77500
O158        O  0.01167202  0.55606599  0.60338659    -0.96900
O159        O  0.00975902  0.61891306  0.54009740    -0.77700
Zr160      Zr  0.01237991  0.45399955  0.54136843     2.70100
O161        O  0.01347336  0.45116067  0.60241805    -0.79000
O162        O  0.01202229  0.39170847  0.53603260    -0.98100
Zr163      Zr  0.94775470  0.50463178  0.49116483     2.21500
Zr164      Zr  0.07643020  0.50631490  0.49256144     2.11100
O165        O  0.04413093  0.50564194  0.54303220    -2.46800
O166        O  0.97902922  0.50468547  0.54219700    -0.78800
O167        O  0.04438344  0.55804068  0.49281184    -0.71000
O168        O  0.98031006  0.45315150  0.49115844    -2.31900
O169        O  0.97825493  0.55740160  0.49223859    -2.28100
O170        O  0.04568525  0.45379910  0.49173949    -0.72700
H171        H  0.06027293  0.50747956  0.42226754     0.79300
H172        H  0.96587493  0.43300375  0.49106201     0.80300
H173        H  0.05875227  0.50563764  0.56254360     0.82600
H174        H  0.96295278  0.57677489  0.49210668     0.80200
H175        H  0.00934594  0.38819969  0.41301890     0.43200
H176        H  0.02235656  0.38730000  0.51378816     0.42200
H177        H  0.02713670  0.47129785  0.60934296     0.41900
H178        H  0.03004837  0.53987697  0.60949199     0.39800
H179        H  0.99224026  0.62453818  0.52315692     0.42900
H180        H  0.01448554  0.62849409  0.42544054     0.37700
H181        H  0.02867200  0.54192035  0.37512204     0.43800
H182        H  0.03777605  0.46323434  0.37415893     0.40200
H183        H  0.02061015  0.57894745  0.60967253     0.45200
H184        H  0.02756528  0.62610186  0.46248082     0.43900
H185        H  0.00647629  0.43845205  0.37208630     0.44000
H186        H  0.02916744  0.38349752  0.55233679     0.44400
C187        C  0.73711534  0.32471397  0.30947811     0.81000
N188        N  0.72462010  0.33712224  0.28009845    -0.77300
C189        C  0.69783791  0.32161746  0.26481449     0.83500
N190        N  0.68360931  0.29338029  0.27932055    -0.77200
C191        C  0.69580487  0.28073383  0.30870882     0.83600
N192        N  0.72239545  0.29668606  0.32363421    -0.78900
C193        C  0.73460828  0.67937652  0.30494815     0.81000
N194        N  0.71897661  0.70637836  0.31982565    -0.77300
C195        C  0.69156191  0.72161351  0.30547166     0.83500
N196        N  0.67938633  0.70882938  0.27600957    -0.77200
C197        C  0.69469577  0.68150214  0.26087127     0.83600
N198        N  0.72233632  0.66707267  0.27557405    -0.78900
C199        C  0.68766938  0.32686502  0.70991205     0.81000
N200        N  0.67516624  0.29757424  0.69620873    -0.77300
C201        C  0.68961625  0.28382007  0.66836272     0.83500
N202        N  0.71696434  0.29952695  0.65438357    -0.77200
C203        C  0.72985351  0.32865879  0.66789933     0.83600
N204        N  0.71497311  0.34233012  0.69550363    -0.78900
C205        C  0.33561083  0.72058423  0.31234627     0.81000
N206        N  0.30486898  0.70941654  0.32347624    -0.77300
C207        C  0.29008971  0.68120274  0.30972346     0.83500
N208        N  0.30627896  0.66431588  0.28463674    -0.77200
C209        C  0.33683549  0.67529143  0.27314609     0.83600
N210        N  0.35131819  0.70330450  0.28725715    -0.78900
C211        C  0.32639003  0.68523850  0.72185297     0.81000
N212        N  0.29976535  0.66996504  0.70611572    -0.77300
C213        C  0.28900377  0.68130937  0.67568698     0.83500
N214        N  0.30537443  0.70806849  0.66093845    -0.77200
C215        C  0.33181664  0.72374135  0.67640952     0.83600
N216        N  0.34224352  0.71215432  0.70677875    -0.78900
C217        C  0.33042902  0.32083311  0.71134119     0.81000
N218        N  0.34298528  0.29106622  0.69864836    -0.77300
C219        C  0.32781369  0.27560500  0.67200470     0.83500
N220        N  0.29995440  0.29040925  0.65811039    -0.77200
C221        C  0.28706909  0.32007883  0.67055179     0.83600
N222        N  0.30257764  0.33520297  0.69704285    -0.78900
C223        C  0.69149235  0.68028789  0.71818766     0.81000
N224        N  0.67753767  0.70873041  0.70415544    -0.77300
C225        C  0.69046218  0.72221542  0.67541227     0.83500
N226        N  0.71749681  0.70682368  0.66066723    -0.77200
C227        C  0.73170927  0.67830431  0.67427645     0.83600
N228        N  0.71845295  0.66509342  0.70299818    -0.78900
C229        C  0.33171118  0.28234804  0.31535162     0.81000
N230        N  0.34585513  0.29458859  0.28669130    -0.77300
C231        C  0.33239145  0.32196199  0.27044016     0.83500
N232        N  0.30438917  0.33747529  0.28330489    -0.77200
C233        C  0.28981122  0.32538658  0.31188089     0.83600
N234        N  0.30360993  0.29788882  0.32780709    -0.78900
C235        C  0.21399896  0.38072780  0.65220580    -0.27400
C236        C  0.20589492  0.37159305  0.61917613     0.06200
C237        C  0.22360728  0.34478363  0.60356147     0.25800
C238        C  0.24938334  0.32761707  0.62075478    -0.11900
C239        C  0.25813459  0.33709937  0.65368648    -0.25800
C240        C  0.23987379  0.36373647  0.66942019     0.36600
C241        C  0.17890127  0.39022804  0.60126508     0.06200
F242        F  0.21569091  0.33495727  0.57185178    -0.19600
H243        H  0.26289585  0.30727039  0.60796108     0.16000
F244        F  0.24676567  0.37337891  0.70141364    -0.23300
H245        H  0.20045901  0.40137602  0.66454314     0.17800
C246        C  0.14596677  0.39165055  0.61464757     0.25800
C247        C  0.12068564  0.41007801  0.59809479    -0.11900
C248        C  0.12783678  0.42750897  0.56795375    -0.25900
C249        C  0.16093783  0.42589240  0.55448490     0.36700
C250        C  0.18617163  0.40726090  0.57105524    -0.27500
F251        F  0.13814635  0.37467994  0.64344013    -0.19600
H252        H  0.09546291  0.41073731  0.60899054     0.16000
F253        F  0.16882480  0.44162386  0.52503440    -0.23400
H254        H  0.21153424  0.40636186  0.56048603     0.17900
C255        C  0.18098444  0.57925089  0.59886205    -0.27400
C256        C  0.17799718  0.61376558  0.60817483     0.06200
C257        C  0.14906213  0.63250655  0.59872294     0.25800
C258        C  0.12324769  0.61666490  0.58040987    -0.11900
C259        C  0.12634599  0.58218865  0.57071261    -0.25800
C260        C  0.15554937  0.56357281  0.57995573     0.36600
C261        C  0.20613652  0.63072507  0.62582977     0.06200
F262        F  0.14579103  0.66605060  0.60735561    -0.19600
H263        H  0.10104836  0.63144903  0.57339923     0.16000
F264        F  0.15924433  0.53007494  0.57127523    -0.23300
H265        H  0.20337744  0.56467456  0.60569244     0.17800
C266        C  0.21677107  0.61951925  0.65760799     0.25800
C267        C  0.24349155  0.63628502  0.67385001    -0.11900
C268        C  0.26058419  0.66385266  0.65824476    -0.25900
C269        C  0.25040825  0.67405733  0.62576711     0.36700
C270        C  0.22315231  0.65788955  0.61008377    -0.27500
F271        F  0.20114094  0.59264263  0.67299742    -0.19600
H272        H  0.25087142  0.62748559  0.69858463     0.16000
F273        F  0.26693589  0.69923519  0.60869127    -0.23400
H274        H  0.21565061  0.66617129  0.58519492     0.17900
C275        C  0.18742284  0.59829663  0.40809629    -0.27400
C276        C  0.17885083  0.62038265  0.38164907     0.06200
C277        C  0.14471660  0.62585371  0.37360480     0.25800
C278        C  0.11926524  0.60921751  0.39175772    -0.11900
C279        C  0.12747979  0.58670125  0.41821852    -0.25800
C280        C  0.16201986  0.58162462  0.42645665     0.36600
C281        C  0.20565215  0.63668674  0.36158673     0.06200
F282        F  0.13613134  0.64645823  0.34745092    -0.19600
H283        H  0.09308900  0.61356097  0.38457772     0.16000
F284        F  0.17141745  0.56053426  0.45199396    -0.23300
H285        H  0.21384534  0.59392327  0.41440320     0.17800
C286        C  0.21148881  0.67215348  0.36354737     0.25800
C287        C  0.23826686  0.68692700  0.34554321    -0.11900
C288        C  0.25894675  0.66657235  0.32476956    -0.25900
C289        C  0.25126237  0.63137138  0.32113192     0.36700
C290        C  0.22523412  0.61655728  0.33996983    -0.27500
F291        F  0.19192553  0.69218531  0.38360892    -0.19600
H292        H  0.24321298  0.71414426  0.34833742     0.16000
F293        F  0.26961501  0.61081188  0.30048797    -0.23400
H294        H  0.22034906  0.58925815  0.33778239     0.17900
C295        C  0.21085491  0.34227925  0.36290580    -0.27400
C296        C  0.20824425  0.37815647  0.36059939     0.06200
C297        C  0.23144099  0.39636185  0.34038356     0.25800
C298        C  0.25725511  0.37886628  0.32349331    -0.11900
C299        C  0.26044956  0.34309746  0.32674434    -0.25800
C300        C  0.23652678  0.32481333  0.34597130     0.36600
C301        C  0.18123441  0.39615091  0.37939615     0.06200
F302        F  0.22906206  0.43096008  0.33683379    -0.19600
H303        H  0.27534155  0.39342088  0.30865656     0.16000
F304        F  0.23781827  0.29004251  0.34827100    -0.23300
H305        H  0.19325847  0.32775193  0.37832354     0.17800
C306        C  0.14745265  0.38468396  0.37764047     0.25800
C307        C  0.12211101  0.40124628  0.39585154    -0.11900
C308        C  0.12981132  0.42953973  0.41637086    -0.25900
C309        C  0.16382478  0.44090793  0.41830757     0.36700
C310        C  0.18919541  0.42430162  0.39989930    -0.27500
F311        F  0.13878257  0.35776587  0.35781071    -0.19600
H312        H  0.09630922  0.39179199  0.39374878     0.16000
F313        F  0.17267739  0.46819478  0.43758549    -0.23400
H314        H  0.21520081  0.43320187  0.40195713     0.17900
C315        C  0.83418223  0.58936839  0.57947998    -0.27400
C316        C  0.84221824  0.61255330  0.60501091     0.06200
C317        C  0.87621573  0.61874310  0.61329652     0.25800
C318        C  0.90205897  0.60217170  0.59569477    -0.11900
C319        C  0.89436316  0.57894507  0.56971029    -0.25800
C320        C  0.85991699  0.57249032  0.56196201     0.36600
C321        C  0.81482432  0.62979272  0.62324129     0.06200
F322        F  0.88435078  0.64059728  0.63854873    -0.19600
H323        H  0.92813920  0.60755793  0.60256261     0.16000
F324        F  0.85086356  0.54993659  0.53762685    -0.23300
H325        H  0.80786680  0.58431145  0.57319672     0.17800
C326        C  0.80332381  0.66211533  0.61287669     0.25800
C327        C  0.77655769  0.67787198  0.62985452    -0.08900
C328        C  0.76065885  0.66143455  0.65722643    -0.25900
C329        C  0.77232215  0.62873124  0.66728119     0.36700
C330        C  0.79930676  0.61322469  0.65039623    -0.27500
F331        F  0.81760085  0.67807914  0.58599827    -0.19600
H332        H  0.76817063  0.70288314  0.62132737     0.16000
F333        F  0.75731813  0.61123072  0.69280085    -0.23400
H334        H  0.80788527  0.58801905  0.65822187     0.17900
C335        C  0.83657239  0.42344963  0.58276885    -0.27400
C336        C  0.84338347  0.39628786  0.60481353     0.06200
C337        C  0.87708905  0.38549561  0.60958219     0.25800
C338        C  0.90350312  0.40163452  0.59219696    -0.11900
C339        C  0.89672737  0.42887758  0.56992621    -0.25800
C340        C  0.86283979  0.43981231  0.56564018     0.36600
C341        C  0.81496476  0.37899648  0.62205283     0.06200
F342        F  0.88449836  0.35980790  0.63147403    -0.19600
H343        H  0.92924995  0.39274269  0.59620911     0.16000
F344        F  0.85483427  0.46650908  0.54516848    -0.23300
H345        H  0.81069228  0.43186791  0.57856789     0.17800
C346        C  0.79053260  0.39810751  0.63971030     0.25800
C347        C  0.76308684  0.38151865  0.65492123    -0.11900
C348        C  0.75929237  0.34575961  0.65226113    -0.25900
C349        C  0.78367462  0.32672447  0.63438302     0.36700
C350        C  0.81136192  0.34327255  0.61961654    -0.27500
F351        F  0.79334382  0.43275816  0.64240450    -0.19600
H352        H  0.74448839  0.39672881  0.66833204     0.16000
F353        F  0.78107117  0.29209161  0.63152073    -0.23400
H354        H  0.82971218  0.32823796  0.60568912     0.17900
C355        C  0.83904096  0.41037992  0.40836816    -0.27400
C356        C  0.84677710  0.39139359  0.37958923     0.06200
C357        C  0.88055883  0.38896915  0.36864193     0.25800
C358        C  0.90631102  0.40561023  0.38636156    -0.11900
C359        C  0.89865871  0.42515441  0.41508177    -0.25800
C360        C  0.86462269  0.42715359  0.42605256     0.36600
C361        C  0.81932077  0.37401511  0.36135165     0.06200
F362        F  0.88862477  0.37012150  0.34114139    -0.19600
H363        H  0.93219272  0.40345148  0.37733509     0.16000
F364        F  0.85587495  0.44506080  0.45394381    -0.23300
H365        H  0.81300351  0.41237064  0.41702067     0.17800
C366        C  0.79942018  0.34911740  0.37751929     0.25800
C367        C  0.77295822  0.33315456  0.36036713    -0.11900
C368        C  0.76557557  0.34203876  0.32689099    -0.25900
C369        C  0.78549806  0.36739170  0.31088298     0.36700
C370        C  0.81230723  0.38299582  0.32802113    -0.27500
F371        F  0.80586470  0.34000743  0.40980508    -0.19600
H372        H  0.75807016  0.31397481  0.37353778     0.16000
F373        F  0.77935930  0.37709335  0.27873759    -0.23400
H374        H  0.82735276  0.40249171  0.31545082     0.17900
C375        C  0.87496816  0.62510408  0.37571918    -0.27400
C376        C  0.84349055  0.60871322  0.37249609     0.06200
C377        C  0.83856938  0.57622718  0.38705607     0.25800
C378        C  0.86474990  0.56076724  0.40542433    -0.11900
C379        C  0.89624796  0.57746329  0.40939774    -0.25800
C380        C  0.90119657  0.60971843  0.39390708     0.36600
C381        C  0.81554784  0.62643052  0.35505349     0.06200
F382        F  0.80847806  0.55955092  0.38344604    -0.19600
H383        H  0.86040462  0.53569980  0.41648606     0.16000
F384        F  0.93100527  0.62697102  0.39708493    -0.23300
H385        H  0.87898311  0.65022405  0.36463726     0.17800
C386        C  0.78896775  0.64120055  0.37352472     0.25800
C387        C  0.76297790  0.65884999  0.35705146    -0.11900
C388        C  0.76304556  0.66186366  0.32191789    -0.25900
C389        C  0.78996606  0.64740295  0.30346767     0.36700
C390        C  0.81611672  0.62995220  0.32003555    -0.27500
F391        F  0.78856018  0.63908186  0.40752874    -0.19600
H392        H  0.74252693  0.66980458  0.37175487     0.16000
F393        F  0.79149429  0.65098889  0.26960509    -0.23400
H394        H  0.83685556  0.61918438  0.30559751     0.17900
C395        C  0.66589088  0.21656384  0.60390088    -0.27400
C396        C  0.64143275  0.19767245  0.62153524     0.06200
C397        C  0.63448179  0.20547345  0.65514599     0.25800
C398        C  0.65092072  0.23302810  0.67051395    -0.11900
C399        C  0.67457996  0.25305413  0.65256167    -0.25800
C400        C  0.68238443  0.24411187  0.61912956     0.36600
C401        C  0.62253369  0.17062967  0.60410715     0.06200
F402        F  0.61173043  0.18654161  0.67295378    -0.19600
H403        H  0.64480347  0.23890855  0.69637607     0.16000
F404        F  0.70485202  0.26262866  0.60057417    -0.23300
H405        H  0.67147176  0.21052987  0.57793879     0.17800
C406        C  0.58849826  0.17575470  0.59488570     0.25800
C407        C  0.57125155  0.15054785  0.57663963    -0.11900
C408        C  0.58781364  0.11993104  0.56777904    -0.25900
C409        C  0.62201223  0.11512975  0.57700710     0.36700
C410        C  0.63920906  0.14041791  0.59489360    -0.27500
F411        F  0.57237595  0.20545079  0.60287828    -0.19600
H412        H  0.54497044  0.15476092  0.56974682     0.16000
F413        F  0.63913514  0.08636577  0.56789567    -0.23400
H414        H  0.66564427  0.13655131  0.60144742     0.17900
C415        C  0.34615327  0.20292626  0.61109863    -0.27400
C416        C  0.37700875  0.19051769  0.62355944     0.06200
C417        C  0.39029491  0.20411070  0.65334325     0.25800
C418        C  0.37349996  0.23091100  0.66966281    -0.11900
C419        C  0.34322706  0.24465855  0.65647318    -0.25800
C420        C  0.32925479  0.22966486  0.62731056     0.36600
C421        C  0.39568892  0.16422225  0.60459582     0.06200
F422        F  0.41953037  0.19150034  0.66654247    -0.19600
H423        H  0.38469349  0.24135909  0.69225736     0.16000
F424        F  0.29972079  0.24113224  0.61380639    -0.23300
H425        H  0.33556602  0.19241087  0.58822534     0.17800
C426        C  0.38189817  0.13133642  0.60023212     0.25800
C427        C  0.39967548  0.10672166  0.58185916    -0.11900
C428        C  0.43113164  0.11479439  0.56690465    -0.25900
C429        C  0.44439030  0.14818797  0.57059631     0.36700
C430        C  0.42690303  0.17251474  0.58964307    -0.27500
F431        F  0.35145611  0.12298283  0.61410657    -0.19600
H432        H  0.38871657  0.08133335  0.57923686     0.16000
F433        F  0.47453120  0.15718652  0.55647756    -0.23400
H434        H  0.43752646  0.19802820  0.59246868     0.17900
C435        C  0.35254676  0.21411397  0.38060110    -0.27400
C436        C  0.37873455  0.19612238  0.36439112     0.06200
C437        C  0.38831226  0.20588738  0.33177242     0.25800
C438        C  0.37303854  0.23400100  0.31633005    -0.11900
C439        C  0.34718725  0.25250394  0.33259068    -0.25800
C440        C  0.33674207  0.24199558  0.36490039     0.36600
C441        C  0.39665268  0.16793089  0.38193095     0.06200
F442        F  0.41202907  0.18783030  0.31448025    -0.19600
H443        H  0.38132930  0.24096013  0.29129890     0.16000
F444        F  0.31174505  0.25880577  0.38164410    -0.23300
H445        H  0.34476035  0.20695256  0.40574825     0.17800
C446        C  0.43238163  0.16746573  0.38331183     0.25800
C447        C  0.44918520  0.14139316  0.40059338    -0.11900
C448        C  0.43080619  0.11518702  0.41654071    -0.25900
C449        C  0.39511340  0.11533359  0.41505704     0.36700
C450        C  0.37819020  0.14174060  0.39807706    -0.27500
F451        F  0.45110442  0.19274199  0.36875156    -0.19600
H452        H  0.47671133  0.14155098  0.40138355     0.16000
F453        F  0.37667120  0.09060336  0.43083207    -0.23400
H454        H  0.35067189  0.14167894  0.39737484     0.17900
C455        C  0.63169024  0.13490949  0.36908477    -0.27400
C456        C  0.62721142  0.16952162  0.37737895     0.06200
C457        C  0.60455151  0.17822359  0.40325418     0.25800
C458        C  0.58708274  0.15258371  0.42096754    -0.11900
C459        C  0.59183899  0.11766404  0.41323504    -0.25800
C460        C  0.61446238  0.10916618  0.38683214     0.36600
C461        C  0.64632993  0.19659384  0.35927160     0.06200
F462        F  0.59887424  0.21168148  0.41092672    -0.19600
H463        H  0.56979785  0.16015830  0.44076732     0.16000
F464        F  0.62006135  0.07602950  0.37787511    -0.23300
H465        H  0.64898295  0.12777995  0.34910369     0.17800
C466        C  0.66749790  0.21925791  0.37693385     0.25800
C467        C  0.68379114  0.24617271  0.36020541    -0.11900
C468        C  0.67930761  0.25108637  0.32550799    -0.25900
C469        C  0.65878206  0.22776837  0.30764913     0.36700
C470        C  0.64268076  0.20060639  0.32444583    -0.27500
F471        F  0.67248827  0.21525620  0.41041702    -0.19600
H472        H  0.69950505  0.26355168  0.37465011     0.16000
F473        F  0.65431340  0.23107694  0.27402590    -0.23400
H474        H  0.62664887  0.18316523  0.31041447     0.17900
C475        C  0.43199399  0.82189654  0.58429085    -0.27400
C476        C  0.40585184  0.83000903  0.60683356     0.06200
C477        C  0.39610000  0.86437296  0.61088559     0.25800
C478        C  0.41279933  0.89031410  0.59312010    -0.11900
C479        C  0.43924253  0.88245569  0.57056062    -0.25800
C480        C  0.44834748  0.84771514  0.56598444     0.36600
C481        C  0.38766072  0.80244447  0.62486601     0.06200
F482        F  0.36960067  0.87269372  0.63113695    -0.19600
H483        H  0.40463184  0.91658904  0.59680278     0.16000
F484        F  0.47272937  0.83843874  0.54366745    -0.23300
H485        H  0.43955329  0.79541273  0.58067476     0.17800
C486        C  0.37149002  0.77614219  0.60691231     0.25800
C487        C  0.35290117  0.75100783  0.62388401    -0.11900
C488        C  0.35072857  0.75125801  0.65906493    -0.25900
C489        C  0.36737511  0.77734706  0.67710956     0.36700
C490        C  0.38547851  0.80289016  0.66002333    -0.27500
F491        F  0.37305289  0.77523764  0.57289338    -0.19600
H492        H  0.34056626  0.73101321  0.60946967     0.16000
F493        F  0.36548686  0.77865543  0.71110447    -0.23400
H494        H  0.39787271  0.82303332  0.67419724     0.17900
C495        C  0.59188593  0.82883517  0.59420309    -0.27400
C496        C  0.62299549  0.83536076  0.60999398     0.06200
C497        C  0.63724478  0.86839582  0.60826859     0.25800
C498        C  0.62039387  0.89455376  0.59093035    -0.11900
C499        C  0.58952748  0.88788709  0.57437088    -0.25800
C500        C  0.57533740  0.85469775  0.57635969     0.36600
C501        C  0.64069433  0.80729417  0.62757107     0.06200
F502        F  0.66734960  0.87531095  0.62345239    -0.19600
H503        H  0.63191045  0.91981399  0.58980468     0.16000
F504        F  0.54538997  0.84715089  0.56121153    -0.23300
H505        H  0.58069954  0.80341021  0.59518903     0.17800
C506        C  0.62454338  0.78914819  0.65354947     0.25800
C507        C  0.64122896  0.76209409  0.66951510    -0.11900
C508        C  0.67400851  0.75215531  0.65934762    -0.25900
C509        C  0.69004663  0.77036981  0.63308969     0.36700
C510        C  0.67352187  0.79783751  0.61759965    -0.27500
F511        F  0.59265426  0.79766926  0.66351530    -0.19600
H512        H  0.62809926  0.74848917  0.68941774     0.16000
F513        F  0.72159453  0.76175059  0.62219713    -0.23400
H514        H  0.68609745  0.81136525  0.59728627     0.17900
C515        C  0.61749747  0.86412590  0.36144159    -0.27400
C516        C  0.62062121  0.83113110  0.37525506     0.06200
C517        C  0.60660508  0.82449348  0.40709163     0.25800
C518        C  0.58994748  0.85055615  0.42478796    -0.11900
C519        C  0.58735797  0.88392419  0.41133413    -0.25800
C520        C  0.60118620  0.89032970  0.37922555     0.36600
C521        C  0.63917552  0.80395166  0.35674599     0.06200
F522        F  0.60875802  0.79267295  0.42092504    -0.19600
H523        H  0.57950850  0.84467605  0.44930351     0.16000
F524        F  0.59872762  0.92179789  0.36472780    -0.23300
H525        H  0.62819503  0.86973621  0.33697206     0.17800
C526        C  0.62907279  0.79377893  0.32444193     0.25800
C527        C  0.64637534  0.76738465  0.30772658    -0.11900
C528        C  0.67423112  0.75072182  0.32280379    -0.25900
C529        C  0.68468809  0.76172453  0.35498607     0.36700
C530        C  0.66722751  0.78790516  0.37162440    -0.27500
F531        F  0.60179266  0.80863157  0.30951521    -0.19600
H532        H  0.63765198  0.75976894  0.28307829     0.16000
F533        F  0.71148158  0.74702720  0.37088132    -0.23400
H534        H  0.67564912  0.79571230  0.39633772     0.17900
C535        C  0.40452552  0.78230545  0.34021018    -0.27400
C536        C  0.38720581  0.80192416  0.36399820     0.06200
C537        C  0.35260715  0.79576350  0.37012079     0.25800
C538        C  0.33571543  0.76968835  0.35280203    -0.11900
C539        C  0.35310567  0.74953634  0.32907234    -0.25800
C540        C  0.38778216  0.75642548  0.32275747     0.36600
C541        C  0.40537988  0.82945398  0.38152359     0.06200
F542        F  0.33546459  0.81441868  0.39337189    -0.19600
H543        H  0.30911653  0.76510482  0.35822626     0.16000
F544        F  0.40599832  0.73784981  0.30031169    -0.23300
H545        H  0.43115359  0.78716915  0.33508165     0.17800
C546        C  0.43299211  0.82200650  0.40253579     0.25800
C547        C  0.45021415  0.84857716  0.41873319    -0.11900
C548        C  0.44033578  0.88296928  0.41389637    -0.25900
C549        C  0.41331591  0.89019550  0.39166106     0.36700
C550        C  0.39589321  0.86355541  0.37599060    -0.27500
F551        F  0.44281342  0.78902282  0.40784287    -0.19600
H552        H  0.47110150  0.84213589  0.43525271     0.16000
F553        F  0.40335688  0.92288296  0.38505986    -0.23400
H554        H  0.37509564  0.86954227  0.35917707     0.17900
C555        C  0.67242833  0.38523813  0.19670659    -0.27400
C556        C  0.64675475  0.36694923  0.18006801     0.06200
C557        C  0.63991743  0.33293628  0.18972320     0.25800
C558        C  0.65753302  0.31803709  0.21646114    -0.11900
C559        C  0.68240725  0.33666381  0.23410688    -0.25800
C560        C  0.69030279  0.37031173  0.22332576     0.36600
C561        C  0.62661179  0.38380413  0.15331396     0.06200
F562        F  0.61509641  0.31462404  0.17430836    -0.19600
H563        H  0.65102338  0.29206001  0.22383388     0.16000
F564        F  0.71431626  0.38940325  0.23910075    -0.23300
H565        H  0.67834495  0.41135625  0.18927956     0.17800
C566        C  0.60884569  0.41433609  0.15983788     0.25800
C567        C  0.59024533  0.43040979  0.13438298    -0.11900
C568        C  0.58885032  0.41639015  0.10184921    -0.25900
C569        C  0.60625106  0.38535184  0.09561259     0.36700
C570        C  0.62486057  0.36932431  0.12116078    -0.27500
F571        F  0.60889005  0.42822146  0.19106784    -0.19600
H572        H  0.57709300  0.45408800  0.14017988     0.16000
F573        F  0.60501322  0.37011916  0.06504370    -0.23400
H574        H  0.63821671  0.34565626  0.11575842     0.17900
C575        C  0.60134958  0.58853552  0.16249890    -0.27400
C576        C  0.62845356  0.60964469  0.15249876     0.06200
C577        C  0.63700840  0.61191268  0.11844489     0.25800
C578        C  0.61789534  0.59414267  0.09463560    -0.11900
C579        C  0.59026614  0.57320123  0.10433834    -0.25800
C580        C  0.58257552  0.57010828  0.13878249     0.36600
C581        C  0.64684127  0.63000659  0.17780519     0.06200
F582        F  0.66331522  0.63192187  0.10813001    -0.19600
H583        H  0.62486671  0.59689647  0.06846479     0.16000
F584        F  0.55681702  0.54971795  0.14967689    -0.23300
H585        H  0.59472187  0.58640506  0.18881907     0.17800
C586        C  0.63055451  0.65736689  0.19396744     0.25800
C587        C  0.64680556  0.67494691  0.21995082    -0.11900
C588        C  0.67955781  0.66535019  0.23051603    -0.25900
C589        C  0.69634354  0.63858042  0.21317868     0.36700
C590        C  0.68002952  0.62121669  0.18702297    -0.27500
F591        F  0.59864055  0.66668556  0.18487007    -0.19600
H592        H  0.63319479  0.69538880  0.23249016     0.16000
F593        F  0.72820458  0.62855951  0.22176565    -0.23400
H594        H  0.69291692  0.60020977  0.17458456     0.17900
C595        C  0.39761158  0.65369246  0.20251823    -0.27400
C596        C  0.38520869  0.62172823  0.19212295     0.06200
C597        C  0.35797221  0.60654425  0.20945403     0.25800
C598        C  0.34261881  0.62390436  0.23607970    -0.11900
C599        C  0.35439126  0.65649428  0.24599398    -0.25800
C600        C  0.38265554  0.67088223  0.22932341     0.36600
C601        C  0.40158998  0.60438588  0.16359013     0.06200
F602        F  0.34668398  0.57474282  0.20106367    -0.19600
H603        H  0.32151986  0.61174473  0.24893086     0.16000
F604        F  0.39568622  0.70178199  0.23833973    -0.23300
H605        H  0.41884253  0.66553860  0.18956136     0.17800
C606        C  0.38294012  0.59533615  0.13487823     0.25800
C607        C  0.39940935  0.58029008  0.10751070    -0.11900
C608        C  0.43453528  0.57399895  0.10859715    -0.25900
C609        C  0.45314420  0.58357499  0.13713823     0.36700
C610        C  0.43673575  0.59864096  0.16436800    -0.27500
F611        F  0.34912852  0.60197340  0.13295681    -0.19600
H612        H  0.38471287  0.57322982  0.08560683     0.16000
F613        F  0.48735128  0.57935582  0.13826002    -0.23400
H614        H  0.45150684  0.60600879  0.18612639     0.17900
C615        C  0.38443605  0.38368791  0.12356765    -0.27400
C616        C  0.39888240  0.38159405  0.15559903     0.06200
C617        C  0.43066113  0.39689068  0.16162571     0.25800
C618        C  0.44751688  0.41426165  0.13593274    -0.11900
C619        C  0.43303526  0.41657864  0.10382083    -0.25800
C620        C  0.40123874  0.40106243  0.09783069     0.36600
C621        C  0.38053534  0.36411533  0.18294531     0.06200
F622        F  0.44499387  0.39581071  0.19258944    -0.19600
H623        H  0.47193510  0.42592159  0.14122229     0.16000
F624        F  0.38586862  0.40337531  0.06742984    -0.23300
H625        H  0.36004323  0.37187467  0.11850544     0.17800
C626        C  0.34702610  0.37331025  0.19108599     0.25800
C627        C  0.33138144  0.35923632  0.21938788    -0.11900
C628        C  0.34857763  0.33519834  0.23951644    -0.25900
C629        C  0.38145380  0.32454646  0.22998142     0.36700
C630        C  0.39721380  0.33910860  0.20207225    -0.27500
F631        F  0.32986445  0.39676879  0.17241797    -0.19600
H632        H  0.30586849  0.36742738  0.22566877     0.16000
F633        F  0.39895533  0.30079997  0.24795202    -0.23400
H634        H  0.42276518  0.33115803  0.19558578     0.17900
C635        C  0.60360559  0.58421232  0.82010071    -0.27400
C636        C  0.62182204  0.61413064  0.82797610     0.06200
C637        C  0.62113438  0.62664134  0.86099463     0.25800
C638        C  0.60273680  0.60920155  0.88568635    -0.11900
C639        C  0.58500395  0.57881620  0.87800568    -0.25800
C640        C  0.58560588  0.56647321  0.84482284     0.36600
C641        C  0.64166753  0.63174942  0.80157002     0.06200
F642        F  0.63920150  0.65498752  0.86965767    -0.19600
H643        H  0.60270672  0.61935244  0.91097317     0.16000
F644        F  0.56980757  0.53672214  0.83634627    -0.23300
H645        H  0.60353744  0.57437347  0.79469400     0.17800
C646        C  0.66388708  0.61306407  0.78090864     0.25800
C647        C  0.68083332  0.62931597  0.75455620    -0.11900
C648        C  0.67584442  0.66444117  0.74817331    -0.25900
C649        C  0.65452085  0.68342990  0.76964930     0.36700
C650        C  0.63760473  0.66711634  0.79608798    -0.27500
F651        F  0.66912378  0.57901084  0.78613492    -0.19600
H652        H  0.69714756  0.61407270  0.73855040     0.16000
F653        F  0.64981217  0.71765733  0.76508210    -0.23400
H654        H  0.62057648  0.68195266  0.81174213     0.17900
C655        C  0.66021777  0.39147559  0.77558202    -0.27400
C656        C  0.63591313  0.37260162  0.79342555     0.06200
C657        C  0.62913937  0.33847237  0.78452146     0.25800
C658        C  0.64642561  0.32354079  0.75763333    -0.11900
C659        C  0.67075133  0.34245800  0.73934775    -0.25800
C660        C  0.67765551  0.37664433  0.74884028     0.36600
C661        C  0.61715121  0.38921476  0.82074690     0.06200
F662        F  0.60515781  0.32001763  0.80121129    -0.19600
H663        H  0.64051438  0.29725074  0.75097837     0.16000
F664        F  0.70045057  0.39625069  0.73182515    -0.23300
H665        H  0.66549843  0.41790037  0.78229742     0.17800
C666        C  0.62317753  0.37999718  0.85417980     0.25800
C667        C  0.60601780  0.39681105  0.87998098    -0.11900
C668        C  0.58241671  0.42300877  0.87285444    -0.25900
C669        C  0.57642192  0.43201407  0.83902181     0.36700
C670        C  0.59389016  0.41529903  0.81331741    -0.27500
F671        F  0.64623153  0.35530293  0.86186255    -0.19600
H672        H  0.61140046  0.38929047  0.90560466     0.16000
F673        F  0.55396414  0.45700365  0.83056242    -0.23400
H674        H  0.58925064  0.42265581  0.78748579     0.17900
C675        C  0.41554781  0.42084146  0.81515930    -0.27400
C676        C  0.39579417  0.39147907  0.82100393     0.06200
C677        C  0.39159358  0.37943530  0.85399592     0.25800
C678        C  0.40748171  0.39625620  0.88066850    -0.11900
C679        C  0.42776785  0.42546532  0.87490732    -0.25800
C680        C  0.43129376  0.43783225  0.84172056     0.36600
C681        C  0.37957334  0.37355188  0.79260315     0.06200
F682        F  0.37160557  0.35174690  0.86043664    -0.19600
H683        H  0.40407322  0.38619614  0.90580974     0.16000
F684        F  0.44977596  0.46644484  0.83472079    -0.23300
H685        H  0.41901432  0.43048503  0.78985785     0.17800
C686        C  0.35836042  0.39140173  0.77029768     0.25800
C687        C  0.34265869  0.37406538  0.74390983    -0.11900
C688        C  0.34773894  0.33862390  0.73929437    -0.25900
C689        C  0.36915198  0.32082931  0.76163227     0.36700
C690        C  0.38496093  0.33826636  0.78795230    -0.27500
F691        F  0.35195957  0.42536053  0.77467097    -0.19600
H692        H  0.32640036  0.38847517  0.72710027     0.16000
F693        F  0.37404875  0.28646264  0.75877492    -0.23400
H694        H  0.40135839  0.32416218  0.80488556     0.17900
C695        C  0.38759188  0.66295534  0.79179455    -0.27400
C696        C  0.37248015  0.63329508  0.80502091     0.06200
C697        C  0.34024400  0.62319020  0.79365424     0.25800
C698        C  0.32449985  0.64132241  0.76772454    -0.11900
C699        C  0.34053579  0.66994223  0.75291026    -0.25800
C700        C  0.37174362  0.68141036  0.76624489     0.36600
C701        C  0.39082320  0.61296499  0.83037936     0.06200
F702        F  0.32476560  0.59485116  0.80645333    -0.19600
H703        H  0.30027092  0.63214185  0.75849376     0.16000
F704        F  0.38771699  0.70971940  0.75403597    -0.23300
H705        H  0.41202243  0.67159933  0.80104509     0.17800
C706        C  0.42387123  0.60097054  0.82392654     0.25800
C707        C  0.44152790  0.58283356  0.84857372    -0.11900
C708        C  0.42668677  0.57682567  0.88013715    -0.25900
C709        C  0.39337695  0.58838471  0.88628425     0.36700
C710        C  0.37563361  0.60619926  0.86150196    -0.27500
F711        F  0.43899246  0.60670980  0.79377148    -0.19600
H712        H  0.46708716  0.57409971  0.84318812     0.16000
F713        F  0.37776674  0.58216748  0.91608157    -0.23400
H714        H  0.35019148  0.61529929  0.86681600     0.17900
loop_ 
_geom_bond_atom_site_label_1 
_geom_bond_atom_site_label_2 
_geom_bond_distance 
_geom_bond_site_symmetry_2 
_ccdc_geom_bond_type 
O1          Zr13   2.449       .  S
O1            C3   1.289       .  A
O2          Zr39   2.405       .  S
O2            C3   1.283       .  A
C3          C679   1.484       .  S
O4          Zr16   2.437   1_554  S
O4            C6   1.287       .  A
O5          Zr40   2.419       .  S
O5            C6   1.286       .  A
C6          C608   1.470       .  S
O7          Zr16   2.438       .  S
O7            C9   1.288       .  A
O8          Zr39   2.407       .  S
O8            C9   1.284       .  A
C9          C708   1.473       .  S
O10         Zr13   2.428   1_554  S
O10          C12   1.286       .  A
O11         Zr40   2.409       .  S
O11          C12   1.285       .  A
C12         C619   1.473       .  S
Zr13         O14   2.435       .  S
Zr13         O15   2.435       .  S
Zr13         O19   2.366       .  S
Zr13         O20   2.371   1_556  S
Zr13         O43   2.379   1_556  S
Zr13         O45   2.367       .  S
O14          H57   0.990       .  S
O15          H56   0.990   1_556  S
O15          H60   0.990       .  S
Zr16         O17   2.437       .  S
Zr16         O18   2.436       .  S
Zr16         O20   2.369   1_556  S
Zr16         O19   2.369       .  S
Zr16         O44   2.368       .  S
Zr16         O46   2.377   1_556  S
O17          H58   0.990       .  S
O17          H61   0.990   1_556  S
O18          H51   0.990   1_556  S
O19         Zr39   2.377       .  S
O20         Zr40   2.389       .  S
O20          H47   0.962       .  S
O21         Zr33   2.452   1_554  S
O21          C23   1.290       .  A
O22         Zr40   2.429       .  S
O22          C23   1.288       .  A
C23         C568   1.491       .  S
O24         Zr36   2.429       .  S
O24          C26   1.286       .  A
O25         Zr39   2.416       .  S
O25          C26   1.285       .  A
C26         C639   1.478       .  S
O27         Zr36   2.425   1_554  S
O27          C29   1.285       .  A
O28         Zr40   2.432       .  S
O28          C29   1.288       .  A
C29         C579   1.486       .  S
O30         Zr33   2.437       .  S
O30          C32   1.288       .  A
O31         Zr39   2.412       .  S
O31          C32   1.284       .  A
C32         C668   1.483       .  S
Zr33         O34   2.435       .  S
Zr33         O35   2.435       .  S
Zr33         O41   2.369   1_556  S
Zr33         O42   2.374       .  S
Zr33         O45   2.370       .  S
Zr33         O43   2.371   1_556  S
O34          H54   0.990       .  S
O34          H59   0.990   1_556  S
O35          H55   0.990   1_556  S
Zr36         O37   2.434       .  S
Zr36         O38   2.434       .  S
Zr36         O42   2.372       .  S
Zr36         O41   2.368   1_556  S
Zr36         O46   2.365   1_556  S
Zr36         O44   2.363       .  S
O37          H53   0.990       .  S
O38          H52   0.990   1_556  S
O38          H62   0.990       .  S
Zr39         O42   2.373       .  S
Zr39         O44   2.375       .  S
Zr39         O45   2.379       .  S
Zr40         O41   2.373       .  S
Zr40         O43   2.384       .  S
Zr40         O46   2.376       .  S
O41          H49   0.966       .  S
O44          H48   0.967       .  S
O45          H50   0.963       .  S
O63         Zr75   2.425       .  S
O63          C65   1.285       .  A
O64        Zr101   2.419       .  S
O64          C65   1.287       .  A
C65         C548   1.480       .  S
O66         Zr78   2.433       .  S
O66          C68   1.286       .  A
O67        Zr102   2.447       .  S
O67          C68   1.292       .  A
C68         C459   1.494       .  S
O69         Zr78   2.451   1_565  S
O69          C71   1.290       .  A
O70        Zr101   2.418       .  S
O70          C71   1.286       .  A
C71         C519   1.488       .  S
O72         Zr75   2.437   1_545  S
O72          C74   1.286       .  A
O73        Zr102   2.421       .  S
O73          C74   1.286       .  A
C74         C448   1.470       .  S
Zr75         O76   2.433   1_565  S
Zr75         O77   2.437       .  S
Zr75         O81   2.372       .  S
Zr75         O82   2.368   1_565  S
Zr75        O105   2.361   1_565  S
Zr75        O107   2.369       .  S
O76         H119   0.990       .  S
O77         H118   0.990       .  S
O77         H122   0.990       .  S
Zr78         O79   2.434       .  S
Zr78         O80   2.437   1_545  S
Zr78         O82   2.374       .  S
Zr78         O81   2.362   1_545  S
Zr78        O106   2.370   1_545  S
Zr78        O108   2.376       .  S
O79         H120   0.990   1_545  S
O79         H123   0.990   1_545  S
O80         H113   0.990   1_565  S
O81        Zr101   2.376       .  S
O82        Zr102   2.381       .  S
O82         H109   0.966       .  S
O83         Zr95   2.424   1_545  S
O83          C85   1.286       .  A
O84        Zr102   2.427       .  S
O84          C85   1.288       .  A
C85         C428   1.478       .  S
O86         Zr98   2.435   1_565  S
O86          C88   1.287       .  A
O87        Zr101   2.419       .  S
O87          C88   1.286       .  A
C88         C499   1.479       .  S
O89         Zr98   2.430       .  S
O89          C91   1.286       .  A
O90        Zr102   2.418       .  S
O90          C91   1.285       .  A
C91         C408   1.472       .  S
O92         Zr95   2.438       .  S
O92          C94   1.288       .  A
O93        Zr101   2.418       .  S
O93          C94   1.285       .  A
C94         C479   1.485       .  S
Zr95         O96   2.435   1_565  S
Zr95         O97   2.435       .  S
Zr95        O103   2.373   1_565  S
Zr95        O104   2.366       .  S
Zr95        O107   2.362       .  S
Zr95        O105   2.371   1_565  S
O96         H116   0.990   1_545  S
O96         H121   0.990   1_545  S
O97         H117   0.990       .  S
Zr98         O99   2.435       .  S
Zr98        O100   2.436       .  S
Zr98        O104   2.374   1_545  S
Zr98        O103   2.369       .  S
Zr98        O108   2.368       .  S
Zr98        O106   2.369   1_545  S
O99         H115   0.990   1_545  S
O100        H114   0.990   1_545  S
O100        H124   0.990       .  S
Zr101       O104   2.377       .  S
Zr101       O106   2.381       .  S
Zr101       O107   2.382       .  S
Zr102       O103   2.389       .  S
Zr102       O105   2.381       .  S
Zr102       O108   2.382       .  S
O103        H111   0.968       .  S
O106        H110   0.968       .  S
O107        H112   0.967       .  S
O125       Zr137   2.440   1_655  S
O125        C127   1.288       .  A
O126       Zr163   2.426       .  S
O126        C127   1.287       .  A
C127        C379   1.485       .  S
O128       Zr140   2.436       .  S
O128        C130   1.287       .  A
O129       Zr164   2.413       .  S
O129        C130   1.284       .  A
C130        C308   1.482       .  S
O131       Zr140   2.432   1_655  S
O131        C133   1.286       .  A
O132       Zr163   2.409       .  S
O132        C133   1.284       .  A
C133        C359   1.478       .  S
O134       Zr137   2.436       .  S
O134        C136   1.288       .  A
O135       Zr164   2.407       .  S
O135        C136   1.283       .  A
C136        C279   1.480       .  S
Zr137       O138   2.433       .  S
Zr137       O139   2.434       .  S
Zr137       O143   2.370   1_455  S
Zr137       O144   2.374       .  S
Zr137       O167   2.369       .  S
Zr137       O169   2.365   1_455  S
O138        H181   0.990       .  S
O139        H180   0.990       .  S
O139        H184   0.990       .  S
Zr140       O141   2.437       .  S
Zr140       O142   2.435       .  S
Zr140       O144   2.367       .  S
Zr140       O143   2.370   1_455  S
Zr140       O168   2.373   1_455  S
Zr140       O170   2.373       .  S
O141        H182   0.990       .  S
O141        H185   0.990       .  S
O142        H175   0.990       .  S
O143       Zr163   2.372       .  S
O144       Zr164   2.379       .  S
O144        H171   0.965       .  S
O145       Zr157   2.443       .  S
O145        C147   1.288       .  A
O146       Zr164   2.403       .  S
O146        C147   1.283       .  A
C147        C259   1.470       .  S
O148       Zr160   2.433   1_655  S
O148        C150   1.287       .  A
O149       Zr163   2.406       .  S
O149        C150   1.283       .  A
C150        C339   1.479       .  S
O151       Zr160   2.432       .  S
O151        C153   1.286       .  A
O152       Zr164   2.410       .  S
O152        C153   1.284       .  A
C153        C248   1.476       .  S
O154       Zr157   2.438   1_655  S
O154        C156   1.289       .  A
O155       Zr163   2.413       .  S
O155        C156   1.285       .  A
C156        C319   1.483       .  S
Zr157       O158   2.437       .  S
Zr157       O159   2.435       .  S
Zr157       O165   2.371       .  S
Zr157       O166   2.372   1_455  S
Zr157       O169   2.373   1_455  S
Zr157       O167   2.368       .  S
O158        H178   0.990       .  S
O158        H183   0.990       .  S
O159        H179   0.990   1_455  S
Zr160       O161   2.435       .  S
Zr160       O162   2.435       .  S
Zr160       O166   2.372   1_455  S
Zr160       O165   2.367       .  S
Zr160       O170   2.371       .  S
Zr160       O168   2.367   1_455  S
O161        H177   0.990       .  S
O162        H176   0.990       .  S
O162        H186   0.990       .  S
Zr163       O166   2.378       .  S
Zr163       O168   2.380       .  S
Zr163       O169   2.379       .  S
Zr164       O165   2.378       .  S
Zr164       O167   2.378       .  S
Zr164       O170   2.375       .  S
O165        H173   0.968       .  S
O168        H172   0.968       .  S
O169        H174   0.966       .  S
C187        C368   1.481       .  S
C187        N188   1.358       .  A
C187        N192   1.356       .  A
N188        C189   1.359       .  A
C189        C559   1.486       .  S
C189        N190   1.361       .  A
N190        C191   1.358       .  A
C191        C468   1.482       .  S
C191        N192   1.355       .  A
C193        C388   1.475       .  S
C193        N194   1.356       .  A
C193        N198   1.355       .  A
N194        C195   1.358       .  A
C195        C528   1.494       .  S
C195        N196   1.364       .  A
N196        C197   1.365       .  A
C197        C588   1.489       .  S
C197        N198   1.358       .  A
C199        C659   1.480       .  S
C199        N200   1.358       .  A
C199        N204   1.357       .  A
N200        C201   1.358       .  A
C201        C399   1.478       .  S
C201        N202   1.356       .  A
N202        C203   1.355       .  A
C203        C348   1.472       .  S
C203        N204   1.356       .  A
C205        C539   1.480       .  S
C205        N206   1.359       .  A
C205        N210   1.355       .  A
N206        C207   1.359       .  A
C207        C288   1.477       .  S
C207        N208   1.356       .  A
N208        C209   1.354       .  A
C209        C599   1.479       .  S
C209        N210   1.354       .  A
C211        C699   1.482       .  S
C211        N212   1.359       .  A
C211        N216   1.357       .  A
N212        C213   1.358       .  A
C213        C268   1.483       .  S
C213        N214   1.357       .  A
N214        C215   1.355       .  A
C215        C488   1.474       .  S
C215        N216   1.355       .  A
C217        C688   1.479       .  S
C217        N218   1.359       .  A
C217        N222   1.357       .  A
N218        C219   1.360       .  A
C219        C419   1.486       .  S
C219        N220   1.357       .  A
N220        C221   1.357       .  A
C221        C239   1.480       .  S
C221        N222   1.355       .  A
C223        C648   1.477       .  S
C223        N224   1.357       .  A
C223        N228   1.358       .  A
N224        C225   1.357       .  A
C225        C508   1.479       .  S
C225        N226   1.356       .  A
N226        C227   1.356       .  A
C227        C328   1.481       .  S
C227        N228   1.357       .  A
C229        C439   1.481       .  S
C229        N230   1.355       .  A
C229        N234   1.355       .  A
N230        C231   1.355       .  A
C231        C628   1.478       .  S
C231        N232   1.358       .  A
N232        C233   1.357       .  A
C233        C299   1.471       .  S
C233        N234   1.358       .  A
C235        C236   1.401       .  A
C235        C240   1.395       .  A
C235        H245   1.084       .  S
C236        C241   1.472       .  S
C236        C237   1.402       .  A
C237        C238   1.395       .  A
C237        F242   1.358       .  S
C238        C239   1.407       .  A
C238        H243   1.083       .  S
C239        C240   1.410       .  A
C240        F244   1.357       .  S
C241        C246   1.402       .  A
C241        C250   1.402       .  A
C246        C247   1.393       .  A
C246        F251   1.357       .  S
C247        C248   1.406       .  A
C247        H252   1.083       .  S
C248        C249   1.410       .  A
C249        C250   1.396       .  A
C249        F253   1.358       .  S
C250        H254   1.083       .  S
C255        C256   1.400       .  A
C255        C260   1.394       .  A
C255        H265   1.083       .  S
C256        C261   1.470       .  S
C256        C257   1.405       .  A
C257        C258   1.395       .  A
C257        F262   1.358       .  S
C258        C259   1.403       .  A
C258        H263   1.083       .  S
C259        C260   1.408       .  A
C260        F264   1.358       .  S
C261        C266   1.403       .  A
C261        C270   1.398       .  A
C266        C267   1.397       .  A
C266        F271   1.358       .  S
C267        C268   1.409       .  A
C267        H272   1.083       .  S
C268        C269   1.412       .  A
C269        C270   1.393       .  A
C269        F273   1.357       .  S
C270        H274   1.084       .  S
C275        C276   1.401       .  A
C275        C280   1.396       .  A
C275        H285   1.084       .  S
C276        C281   1.466       .  S
C276        C277   1.398       .  A
C277        C278   1.393       .  A
C277        F282   1.357       .  S
C278        C279   1.408       .  A
C278        H283   1.083       .  S
C279        C280   1.413       .  A
C280        F284   1.358       .  S
C281        C286   1.402       .  A
C281        C290   1.397       .  A
C286        C287   1.397       .  A
C286        F291   1.357       .  S
C287        C288   1.407       .  A
C287        H292   1.083       .  S
C288        C289   1.411       .  A
C289        C290   1.393       .  A
C289        F293   1.357       .  S
C290        H294   1.084       .  S
C295        C296   1.404       .  A
C295        C300   1.393       .  A
C295        H305   1.083       .  S
C296        C301   1.478       .  S
C296        C297   1.407       .  A
C297        C298   1.397       .  A
C297        F302   1.358       .  S
C298        C299   1.404       .  A
C298        H303   1.083       .  S
C299        C300   1.405       .  A
C300        F304   1.358       .  S
C301        C306   1.404       .  A
C301        C310   1.404       .  A
C306        C307   1.392       .  A
C306        F311   1.357       .  S
C307        C308   1.406       .  A
C307        H312   1.083       .  S
C308        C309   1.411       .  A
C309        C310   1.398       .  A
C309        F313   1.358       .  S
C310        H314   1.083       .  S
C315        C316   1.398       .  A
C315        C320   1.395       .  A
C315        H325   1.084       .  S
C316        C321   1.464       .  S
C316        C317   1.399       .  A
C317        C318   1.394       .  A
C317        F322   1.358       .  S
C318        C319   1.409       .  A
C318        H323   1.083       .  S
C319        C320   1.413       .  A
C320        F324   1.357       .  S
C321        C326   1.400       .  A
C321        C330   1.398       .  A
C326        C327   1.395       .  A
C326        F331   1.358       .  S
C327        C328   1.409       .  A
C327        H332   1.083       .  S
C328        C329   1.411       .  A
C329        C330   1.395       .  A
C329        F333   1.357       .  S
C330        H334   1.084       .  S
C335        C336   1.400       .  A
C335        C340   1.391       .  A
C335        H345   1.083       .  S
C336        C341   1.473       .  S
C336        C337   1.405       .  A
C337        C338   1.396       .  A
C337        F342   1.358       .  S
C338        C339   1.407       .  A
C338        H343   1.083       .  S
C339        C340   1.411       .  A
C340        F344   1.358       .  S
C341        C346   1.406       .  A
C341        C350   1.402       .  A
C346        C347   1.395       .  A
C346        F351   1.358       .  S
C347        C348   1.404       .  A
C347        H352   1.083       .  S
C348        C349   1.407       .  A
C349        C350   1.394       .  A
C349        F353   1.357       .  S
C350        H354   1.083       .  S
C355        C356   1.399       .  A
C355        C360   1.392       .  A
C355        H365   1.084       .  S
C356        C361   1.468       .  S
C356        C357   1.402       .  A
C357        C358   1.396       .  A
C357        F362   1.358       .  S
C358        C359   1.408       .  A
C358        H363   1.083       .  S
C359        C360   1.411       .  A
C360        F364   1.358       .  S
C361        C366   1.401       .  A
C361        C370   1.401       .  A
C366        C367   1.393       .  A
C366        F371   1.358       .  S
C367        C368   1.408       .  A
C367        H372   1.083       .  S
C368        C369   1.411       .  A
C369        C370   1.397       .  A
C369        F373   1.357       .  S
C370        H374   1.084       .  S
C375        C376   1.399       .  A
C375        C380   1.397       .  A
C375        H385   1.084       .  S
C376        C381   1.473       .  S
C376        C377   1.403       .  A
C377        C378   1.400       .  A
C377        F382   1.358       .  S
C378        C379   1.408       .  A
C378        H383   1.083       .  S
C379        C380   1.411       .  A
C380        F384   1.357       .  S
C381        C386   1.403       .  A
C381        C390   1.402       .  A
C386        C387   1.397       .  A
C386        F391   1.357       .  S
C387        C388   1.405       .  A
C387        H392   1.083       .  S
C388        C389   1.408       .  A
C389        C390   1.399       .  A
C389        F393   1.358       .  S
C390        H394   1.083       .  S
C395        C396   1.398       .  A
C395        C400   1.394       .  A
C395        H405   1.084       .  S
C396        C401   1.465       .  S
C396        C397   1.401       .  A
C397        C398   1.395       .  A
C397        F402   1.357       .  S
C398        C399   1.407       .  A
C398        H403   1.083       .  S
C399        C400   1.411       .  A
C400        F404   1.357       .  S
C401        C406   1.404       .  A
C401        C410   1.397       .  A
C406        C407   1.398       .  A
C406        F411   1.358       .  S
C407        C408   1.405       .  A
C407        H412   1.083       .  S
C408        C409   1.408       .  A
C409        C410   1.392       .  A
C409        F413   1.358       .  S
C410        H414   1.083       .  S
C415        C416   1.399       .  A
C415        C420   1.395       .  A
C415        H425   1.084       .  S
C416        C421   1.471       .  S
C416        C417   1.402       .  A
C417        C418   1.397       .  A
C417        F422   1.358       .  S
C418        C419   1.409       .  A
C418        H423   1.083       .  S
C419        C420   1.413       .  A
C420        F424   1.357       .  S
C421        C426   1.401       .  A
C421        C430   1.402       .  A
C426        C427   1.396       .  A
C426        F431   1.358       .  S
C427        C428   1.408       .  A
C427        H432   1.083       .  S
C428        C429   1.408       .  A
C429        C430   1.397       .  A
C429        F433   1.357       .  S
C430        H434   1.083       .  S
C435        C436   1.404       .  A
C435        C440   1.399       .  A
C435        H445   1.083       .  S
C436        C441   1.480       .  S
C436        C437   1.404       .  A
C437        C438   1.392       .  A
C437        F442   1.357       .  S
C438        C439   1.406       .  A
C438        H443   1.083       .  S
C439        C440   1.411       .  A
C440        F444   1.358       .  S
C441        C446   1.407       .  A
C441        C450   1.406       .  A
C446        C447   1.393       .  A
C446        F451   1.357       .  S
C447        C448   1.401       .  A
C447        H452   1.084       .  S
C448        C449   1.406       .  A
C449        C450   1.399       .  A
C449        F453   1.358       .  S
C450        H454   1.083       .  S
C455        C456   1.400       .  A
C455        C460   1.399       .  A
C455        H465   1.084       .  S
C456        C461   1.480       .  S
C456        C457   1.405       .  A
C457        C458   1.400       .  A
C457        F462   1.357       .  S
C458        C459   1.407       .  A
C458        H463   1.083       .  S
C459        C460   1.417       .  A
C460        F464   1.358       .  S
C461        C466   1.404       .  A
C461        C470   1.404       .  A
C466        C467   1.396       .  A
C466        F471   1.358       .  S
C467        C468   1.407       .  A
C467        H472   1.083       .  S
C468        C469   1.409       .  A
C469        C470   1.401       .  A
C469        F473   1.357       .  S
C470        H474   1.083       .  S
C475        C476   1.402       .  A
C475        C480   1.397       .  A
C475        H485   1.083       .  S
C476        C481   1.474       .  S
C476        C477   1.402       .  A
C477        C478   1.395       .  A
C477        F482   1.358       .  S
C478        C479   1.409       .  A
C478        H483   1.083       .  S
C479        C480   1.412       .  A
C480        F484   1.357       .  S
C481        C486   1.403       .  A
C481        C490   1.404       .  A
C486        C487   1.394       .  A
C486        F491   1.357       .  S
C487        C488   1.404       .  A
C487        H492   1.083       .  S
C488        C489   1.407       .  A
C489        C490   1.398       .  A
C489        F493   1.358       .  S
C490        H494   1.083       .  S
C495        C496   1.400       .  A
C495        C500   1.394       .  A
C495        H505   1.083       .  S
C496        C501   1.473       .  S
C496        C497   1.404       .  A
C497        C498   1.398       .  A
C497        F502   1.358       .  S
C498        C499   1.407       .  A
C498        H503   1.083       .  S
C499        C500   1.409       .  A
C500        F504   1.357       .  S
C501        C506   1.403       .  A
C501        C510   1.401       .  A
C506        C507   1.395       .  A
C506        F511   1.358       .  S
C507        C508   1.407       .  A
C507        H512   1.083       .  S
C508        C509   1.411       .  A
C509        C510   1.396       .  A
C509        F513   1.357       .  S
C510        H514   1.083       .  S
C515        C516   1.402       .  A
C515        C520   1.400       .  A
C515        H525   1.083       .  S
C516        C521   1.484       .  S
C516        C517   1.406       .  A
C517        C518   1.400       .  A
C517        F522   1.358       .  S
C518        C519   1.408       .  A
C518        H523   1.083       .  S
C519        C520   1.411       .  A
C520        F524   1.357       .  S
C521        C526   1.405       .  A
C521        C530   1.401       .  A
C526        C527   1.403       .  A
C526        F531   1.357       .  S
C527        C528   1.409       .  A
C527        H532   1.083       .  S
C528        C529   1.415       .  A
C529        C530   1.398       .  A
C529        F533   1.357       .  S
C530        H534   1.084       .  S
C535        C536   1.396       .  A
C535        C540   1.391       .  A
C535        H545   1.084       .  S
C536        C541   1.467       .  S
C536        C537   1.403       .  A
C537        C538   1.397       .  A
C537        F542   1.358       .  S
C538        C539   1.408       .  A
C538        H543   1.083       .  S
C539        C540   1.413       .  A
C540        F544   1.356       .  S
C541        C546   1.403       .  A
C541        C550   1.397       .  A
C546        C547   1.396       .  A
C546        F551   1.358       .  S
C547        C548   1.408       .  A
C547        H552   1.083       .  S
C548        C549   1.413       .  A
C549        C550   1.392       .  A
C549        F553   1.357       .  S
C550        H554   1.084       .  S
C555        C556   1.403       .  A
C555        C560   1.399       .  A
C555        H565   1.083       .  S
C556        C561   1.482       .  S
C556        C557   1.404       .  A
C557        C558   1.397       .  A
C557        F562   1.357       .  S
C558        C559   1.407       .  A
C558        H563   1.083       .  S
C559        C560   1.412       .  A
C560        F564   1.357       .  S
C561        C566   1.404       .  A
C561        C570   1.403       .  A
C566        C567   1.399       .  A
C566        F571   1.358       .  S
C567        C568   1.409       .  A
C567        H572   1.083       .  S
C568        C569   1.412       .  A
C569        C570   1.401       .  A
C569        F573   1.357       .  S
C570        H574   1.083       .  S
C575        C576   1.403       .  A
C575        C580   1.399       .  A
C575        H585   1.083       .  S
C576        C581   1.474       .  S
C576        C577   1.400       .  A
C577        C578   1.396       .  A
C577        F582   1.358       .  S
C578        C579   1.411       .  A
C578        H583   1.083       .  S
C579        C580   1.410       .  A
C580        F584   1.357       .  S
C581        C586   1.401       .  A
C581        C590   1.400       .  A
C586        C587   1.398       .  A
C586        F591   1.357       .  S
C587        C588   1.407       .  A
C587        H592   1.083       .  S
C588        C589   1.416       .  A
C589        C590   1.400       .  A
C589        F593   1.358       .  S
C590        H594   1.084       .  S
C595        C596   1.400       .  A
C595        C600   1.392       .  A
C595        H605   1.084       .  S
C596        C601   1.472       .  S
C596        C597   1.403       .  A
C597        C598   1.396       .  A
C597        F602   1.358       .  S
C598        C599   1.408       .  A
C598        H603   1.083       .  S
C599        C600   1.410       .  A
C600        F604   1.357       .  S
C601        C606   1.405       .  A
C601        C610   1.402       .  A
C606        C607   1.398       .  A
C606        F611   1.358       .  S
C607        C608   1.405       .  A
C607        H612   1.083       .  S
C608        C609   1.404       .  A
C609        C610   1.393       .  A
C609        F613   1.357       .  S
C610        H614   1.083       .  S
C615        C616   1.400       .  A
C615        C620   1.393       .  A
C615        H625   1.083       .  S
C616        C621   1.471       .  S
C616        C617   1.406       .  A
C617        C618   1.393       .  A
C617        F622   1.358       .  S
C618        C619   1.404       .  A
C618        H623   1.083       .  S
C619        C620   1.410       .  A
C620        F624   1.358       .  S
C621        C626   1.405       .  A
C621        C630   1.400       .  A
C626        C627   1.395       .  A
C626        F631   1.358       .  S
C627        C628   1.406       .  A
C627        H632   1.083       .  S
C628        C629   1.411       .  A
C629        C630   1.392       .  A
C629        F633   1.357       .  S
C630        H634   1.084       .  S
C635        C636   1.403       .  A
C635        C640   1.394       .  A
C635        H645   1.083       .  S
C636        C641   1.477       .  S
C636        C637   1.404       .  A
C637        C638   1.395       .  A
C637        F642   1.358       .  S
C638        C639   1.407       .  A
C638        H643   1.083       .  S
C639        C640   1.408       .  A
C640        F644   1.358       .  S
C641        C646   1.405       .  A
C641        C650   1.403       .  A
C646        C647   1.394       .  A
C646        F651   1.358       .  S
C647        C648   1.405       .  A
C647        H652   1.083       .  S
C648        C649   1.409       .  A
C649        C650   1.397       .  A
C649        F653   1.358       .  S
C650        H654   1.083       .  S
C655        C656   1.398       .  A
C655        C660   1.393       .  A
C655        H665   1.084       .  S
C656        C661   1.467       .  S
C656        C657   1.401       .  A
C657        C658   1.397       .  A
C657        F662   1.358       .  S
C658        C659   1.408       .  A
C658        H663   1.083       .  S
C659        C660   1.411       .  A
C660        F664   1.357       .  S
C661        C666   1.400       .  A
C661        C670   1.400       .  A
C666        C667   1.394       .  A
C666        F671   1.358       .  S
C667        C668   1.409       .  A
C667        H672   1.083       .  S
C668        C669   1.412       .  A
C669        C670   1.396       .  A
C669        F673   1.358       .  S
C670        H674   1.084       .  S
C675        C676   1.401       .  A
C675        C680   1.395       .  A
C675        H685   1.083       .  S
C676        C681   1.476       .  S
C676        C677   1.404       .  A
C677        C678   1.398       .  A
C677        F682   1.357       .  S
C678        C679   1.407       .  A
C678        H683   1.083       .  S
C679        C680   1.413       .  A
C680        F684   1.358       .  S
C681        C686   1.404       .  A
C681        C690   1.403       .  A
C686        C687   1.395       .  A
C686        F691   1.358       .  S
C687        C688   1.407       .  A
C687        H692   1.083       .  S
C688        C689   1.408       .  A
C689        C690   1.397       .  A
C689        F693   1.357       .  S
C690        H694   1.083       .  S
C695        C696   1.400       .  A
C695        C700   1.393       .  A
C695        H705   1.084       .  S
C696        C701   1.473       .  S
C696        C697   1.404       .  A
C697        C698   1.396       .  A
C697        F702   1.358       .  S
C698        C699   1.408       .  A
C698        H703   1.083       .  S
C699        C700   1.411       .  A
C700        F704   1.357       .  S
C701        C706   1.406       .  A
C701        C710   1.400       .  A
C706        C707   1.395       .  A
C706        F711   1.358       .  S
C707        C708   1.405       .  A
C707        H712   1.083       .  S
C708        C709   1.408       .  A
C709        C710   1.394       .  A
C709        F713   1.357       .  S
C710        H714   1.083       .  S
