geometry optimzed in LAMMPS
_audit_creation_date              2020-11-30 
_audit_creation_method            'lammps2cif' 
_symmetry_space_group_name_H-M    'P1' 
_symmetry_Int_Tables_number       1 
_symmetry_cell_setting            triclinic 
loop_ 
_symmetry_equiv_pos_as_xyz 
  x,y,z 
_cell_length_a                    30.106318045674918 
_cell_length_b                    30.029750479558643 
_cell_length_c                    40.873507915142795 
_cell_angle_alpha                 89.8902324270031 
_cell_angle_beta                  89.97695863398017 
_cell_angle_gamma                 120.36592783923551 
loop_ 
_atom_site_label 
_atom_site_type_symbol 
_atom_site_fract_x 
_atom_site_fract_y 
_atom_site_fract_z 
_atom_site_charge 
C1          C  0.47049211  0.95167785  0.10417157     0.02990
C2          C  0.49150986  0.99851717  0.08698929    -0.13160
C3          C  0.51294136  0.04554474  0.10380489     0.00490
C4          C  0.51412432  0.04571919  0.13807913    -0.11690
C5          C  0.49303526  0.99909037  0.15548795     0.02980
C6          C  0.47165385  0.95218631  0.13847273    -0.11110
H7          H  0.49141987  0.99838461  0.06046182     0.08570
H8          H  0.53099708  0.08200674  0.15117825     0.06100
H9          H  0.45667373  0.91628716  0.15192804     0.05950
C10         C  0.47516602  0.95357065  0.34792864     0.02990
C11         C  0.47527555  0.95407418  0.31363821    -0.13160
C12         C  0.49916716  0.00111099  0.29654330     0.00490
C13         C  0.52197429  0.04778049  0.31389353    -0.11690
C14         C  0.52105178  0.04753799  0.34818276     0.02980
C15         C  0.49794891  0.00037385  0.36502487    -0.11110
H16         H  0.45656773  0.91802136  0.30026085     0.08570
H17         H  0.54038894  0.08412749  0.30072975     0.06100
H18         H  0.49751086  0.00008623  0.39155738     0.05950
Fe19       Fe  0.69924129  0.29520381  0.47672271     1.65780
Fe20       Fe  0.70181337  0.40913839  0.47722105     1.73250
Fe21       Fe  0.58706102  0.29636591  0.47603214     1.54410
O22         O  0.58079222  0.23935486  0.44425481    -0.81820
O23         O  0.66241868  0.41197762  0.01753654    -0.80120
O24         O  0.65984137  0.25280198  0.43661900    -0.84320
O25         O  0.64713310  0.23828885  0.00785797    -0.79180
O26         O  0.58468891  0.33773095  0.43636113    -0.80950
O27         O  0.75854258  0.41375957  0.00826029    -0.83700
C28         C  0.60566021  0.22789974  0.02231259     0.97070
C29         C  0.61207507  0.22852953  0.43049210     1.04510
O30         O  0.66263594  0.33350903  0.47661921    -1.12680
O31         O  0.74496322  0.41319458  0.43690127    -0.75110
O32         O  0.75655144  0.34674161  0.44558879    -0.78600
O33         O  0.58148647  0.25131776  0.01577069    -0.79290
C34         C  0.76793515  0.38849881  0.43081874     0.95970
O35         O  0.74241194  0.33380829  0.01690125    -0.77250
O36         O  0.65099375  0.41592343  0.44641398    -0.82440
C37         C  0.61446387  0.38874066  0.02323848     0.98590
C38         C  0.60926384  0.38618475  0.43159826     1.04510
O39         O  0.58298125  0.34797889  0.00787103    -0.78080
C40         C  0.76791562  0.38181456  0.02256950     1.02810
C41         C  0.52153798  0.47785733  0.10374714     0.02990
C42         C  0.49796014  0.50001349  0.08581259    -0.13160
C43         C  0.47080645  0.52023327  0.10179804     0.00490
C44         C  0.46991628  0.52069061  0.13615375    -0.11690
C45         C  0.49519677  0.50032491  0.15431905     0.02980
C46         C  0.52042992  0.47834285  0.13795572    -0.11110
H47         H  0.50051876  0.50108478  0.05935482     0.08570
H48         H  0.44886047  0.53604731  0.14871383     0.06100
H49         H  0.53882606  0.46130550  0.15181424     0.05950
C50         C  0.51166518  0.46796177  0.34748709     0.02990
C51         C  0.51368254  0.47005860  0.31313682    -0.13160
C52         C  0.48958310  0.49236972  0.29564190     0.00490
C53         C  0.46584481  0.51527711  0.31270396    -0.11690
C54         C  0.46425119  0.51417808  0.34696372     0.02980
C55         C  0.48655242  0.48992688  0.36410572    -0.11110
H56         H  0.53527501  0.45595630  0.29996554     0.08570
H57         H  0.44953185  0.53476951  0.29929583     0.06100
H58         H  0.48535554  0.48923692  0.39062697     0.05950
Fe59       Fe  0.29334473  0.70357989  0.47705078     1.65780
Fe60       Fe  0.29148671  0.58952686  0.47415337     1.73250
Fe61       Fe  0.40628474  0.70324461  0.47483788     1.54410
O62         O  0.41198427  0.75933434  0.44254320    -0.81820
O63         O  0.33179812  0.58388370  0.01306630    -0.80120
O64         O  0.33388506  0.74965270  0.43812428    -0.84320
O65         O  0.34412055  0.75849582  0.00955355    -0.79180
O66         O  0.40983532  0.66229346  0.43555541    -0.80950
O67         O  0.23561396  0.58296058  0.00667714    -0.83700
C68         C  0.38751060  0.77089672  0.02195386     0.97070
C69         C  0.38107608  0.77197057  0.43029053     1.04510
O70         O  0.33050961  0.66550648  0.47538590    -1.12680
O71         O  0.24750634  0.58771697  0.43495498    -0.75110
O72         O  0.23726288  0.65464478  0.44452764    -0.78600
O73         O  0.41235645  0.74883488  0.01405770    -0.79290
C74         C  0.22551757  0.61342163  0.42910971     0.95970
O75         O  0.24879480  0.66153379  0.01624488    -0.77250
O76         O  0.34118203  0.58403128  0.44163881    -0.82440
C77         C  0.37912714  0.60975141  0.02069768     0.98590
C78         C  0.38428271  0.61472570  0.42849872     1.04510
O79         O  0.41053092  0.65254639  0.00730236    -0.78080
C80         C  0.22527661  0.61338768  0.02193581     1.02810
C81         C  0.04319880  0.52333325  0.10337106     0.02990
C82         C  0.99615617  0.49923428  0.08665186    -0.13160
C83         C  0.94945852  0.47534370  0.10391818     0.00490
C84         C  0.95009275  0.47525327  0.13823335    -0.11690
C85         C  0.99703149  0.49976728  0.15520998     0.02980
C86         C  0.04353187  0.52296563  0.13764080    -0.11110
H87         H  0.99590025  0.49912858  0.06012278     0.08570
H88         H  0.91418469  0.45611776  0.15174174     0.06100
H89         H  0.07990365  0.54098109  0.15058474     0.05950
C90         C  0.04397409  0.52956640  0.34741968     0.02990
C91         C  0.99771055  0.50606407  0.36506302    -0.13160
C92         C  0.95028723  0.47922770  0.34889120     0.00490
C93         C  0.94930583  0.47769510  0.31457883    -0.11690
C94         C  0.99548409  0.50072561  0.29662318     0.02980
C95         C  0.04274695  0.52648183  0.31320452    -0.11110
H96         H  0.99869126  0.50836198  0.39153137     0.08570
H97         H  0.91270830  0.45836926  0.30191399     0.06100
H98         H  0.07849931  0.54420411  0.29949530     0.05950
C99         C  0.97688607  0.45392195  0.20853045    -0.20450
C100        C  0.99723633  0.50075597  0.19140473    -0.07010
C101        C  0.01622908  0.54740086  0.20895231     0.13850
C102        C  0.01497478  0.54607084  0.24327162    -0.20500
C103        C  0.99475562  0.49927930  0.26042204    -0.07020
C104        C  0.97563830  0.45259682  0.24288072     0.13840
C105        C  0.95555920  0.40162611  0.26024147    -0.23850
H106        H  0.96237644  0.41830433  0.19489967     0.15130
H107        H  0.02948886  0.58171243  0.25687993     0.15160
C108        C  0.03628404  0.59839742  0.19160714    -0.23800
H109        H  0.94467978  0.36950620  0.24272386     0.05370
H110        H  0.92081978  0.39243710  0.27474910     0.08600
H111        H  0.98568593  0.40339284  0.27675253     0.08600
H112        H  0.00617379  0.59659526  0.17506127     0.08580
H113        H  0.07107867  0.60766505  0.17713227     0.08580
H114        H  0.04706975  0.63049290  0.20912847     0.05360
C115        C  0.15292883  0.61828466  0.40378254    -0.20450
C116        C  0.18274963  0.59415987  0.40470757    -0.07010
C117        C  0.16894803  0.55140214  0.38366520     0.13850
C118        C  0.12452558  0.53259056  0.36422403    -0.20500
C119        C  0.09350322  0.55498675  0.36518993    -0.07020
C120        C  0.10866775  0.59927059  0.38440504     0.13840
C121        C  0.07854647  0.62693992  0.38427681    -0.23850
H122        H  0.16325595  0.65156709  0.41905047     0.15130
H123        H  0.11282957  0.49898549  0.34894470     0.15160
C124        C  0.20002875  0.52484613  0.38135182    -0.23800
H125        H  0.09725148  0.66236627  0.39951074     0.05370
H126        H  0.03930136  0.60156430  0.39417887     0.08600
H127        H  0.07572973  0.63845340  0.35887722     0.08600
H128        H  0.19866265  0.50586154  0.40494900     0.08580
H129        H  0.24049658  0.55333043  0.37478910     0.08580
H130        H  0.18479953  0.49435803  0.36228915     0.05360
C131        C  0.15262634  0.61622348  0.04835714    -0.20450
C132        C  0.18181733  0.59172880  0.04565738    -0.07010
C133        C  0.16683744  0.54617782  0.06411000     0.13850
C134        C  0.12221548  0.52557976  0.08357444    -0.20500
C135        C  0.09200402  0.54887303  0.08476051    -0.07020
C136        C  0.10784264  0.59522063  0.06749869     0.13840
C137        C  0.07762281  0.62267911  0.06936971    -0.23850
H138        H  0.16386027  0.65116073  0.03449893     0.15130
H139        H  0.11000834  0.49032923  0.09731819     0.15160
C140        C  0.19774959  0.51934878  0.06391977    -0.23800
H141        H  0.09632569  0.65931220  0.05520116     0.05370
H142        H  0.07456699  0.63198373  0.09525786     0.08600
H143        H  0.03843199  0.59785213  0.05927129     0.08600
H144        H  0.23831314  0.54709359  0.07062875     0.08580
H145        H  0.19629328  0.50292930  0.03939348     0.08580
H146        H  0.18244743  0.48692296  0.08173296     0.05360
C147        C  0.47677753  0.58252055  0.38578509    -0.20450
C148        C  0.44322170  0.54187941  0.36537562    -0.07010
C149        C  0.39057832  0.52689611  0.36449062     0.13850
C150        C  0.37274875  0.55277455  0.38437660    -0.20500
C151        C  0.40624529  0.59319405  0.40514647    -0.07020
C152        C  0.45911339  0.60826576  0.40576834     0.13840
C153        C  0.49679386  0.64938024  0.42867309    -0.23850
H154        H  0.51705097  0.59347128  0.38651866     0.15130
H155        H  0.33218303  0.54070344  0.38420427     0.15160
C156        C  0.35273771  0.48214207  0.34388217    -0.23800
H157        H  0.53565125  0.65377175  0.42711713     0.05370
H158        H  0.48319915  0.63906712  0.45433600     0.08600
H159        H  0.50093840  0.68723657  0.42231120     0.08600
H160        H  0.35374498  0.44685266  0.35069687     0.08580
H161        H  0.36241208  0.49070515  0.31758737     0.08580
H162        H  0.31275206  0.47410008  0.34737969     0.05360
C163        C  0.45785325  0.59332088  0.08745459    -0.20450
C164        C  0.44410063  0.54164181  0.08256044    -0.07010
C165        C  0.40532026  0.51154647  0.05952499     0.13850
C166        C  0.38329674  0.53461340  0.04090128    -0.20500
C167        C  0.39927642  0.58704475  0.04434265    -0.07020
C168        C  0.43607269  0.61653785  0.06853099     0.13840
C169        C  0.45161715  0.67194442  0.07502294    -0.23850
H170        H  0.48671511  0.61593903  0.10565383     0.15130
H171        H  0.35474969  0.51194854  0.52254342     0.15160
C172        C  0.38636405  0.45499747  0.05458015    -0.23800
H173        H  0.47809508  0.68785583  0.09625520     0.05370
H174        H  0.41691079  0.67462977  0.08049154     0.08600
H175        H  0.47186860  0.69633476  0.05347213     0.08600
H176        H  0.37502838  0.43441844  0.07842686     0.08580
H177        H  0.41673750  0.44996142  0.04296683     0.08580
H178        H  0.35231378  0.43664424  0.53819464     0.05360
C179        C  0.46702037  0.45153920  0.20638619    -0.20450
C180        C  0.49332282  0.49947894  0.19048384    -0.07010
C181        C  0.51844347  0.54518554  0.20920353     0.13850
C182        C  0.51677864  0.54172607  0.24350374    -0.20500
C183        C  0.49078342  0.49370479  0.25942082    -0.07020
C184        C  0.46506635  0.44807775  0.24064265     0.13840
C185        C  0.43419200  0.39585634  0.25658276    -0.23850
H186        H  0.44762656  0.41666409  0.19184013     0.15130
H187        H  0.53617458  0.57660659  0.25803703     0.15160
C188        C  0.54820299  0.59742137  0.19310829    -0.23800
H189        H  0.41438945  0.36471070  0.23820521     0.05370
H190        H  0.40445226  0.39545267  0.27285980     0.08600
H191        H  0.45980210  0.38695865  0.27107527     0.08600
H192        H  0.52198223  0.60519686  0.17830628     0.08580
H193        H  0.57854286  0.59865970  0.17702678     0.08580
H194        H  0.56714132  0.62881249  0.21142328     0.05360
C195        C  0.53973223  0.38302433  0.05314375    -0.20450
C196        C  0.59330181  0.41042189  0.04753821    -0.07010
C197        C  0.62370697  0.45874007  0.06355179     0.13850
C198        C  0.59929275  0.47903680  0.08268518    -0.20500
C199        C  0.54578709  0.45262251  0.08636061    -0.07020
C200        C  0.51577723  0.40348683  0.07229202     0.13840
C201        C  0.45836609  0.37255623  0.07750373    -0.23850
H202        H  0.51589505  0.34567610  0.04187854     0.15130
H203        H  0.62189247  0.51648223  0.09414823     0.15160
C204        C  0.68154035  0.49005503  0.06048744    -0.23800
H205        H  0.44079213  0.33431894  0.06534739     0.05370
H206        H  0.44006981  0.39357014  0.06733474     0.08600
H207        H  0.44982256  0.36608262  0.10408548     0.08600
H208        H  0.69266275  0.50213634  0.03467798     0.08580
H209        H  0.69873181  0.46701622  0.06914916     0.08580
H210        H  0.69825607  0.52573350  0.07547509     0.05360
C211        C  0.57294220  0.47819225  0.39126930    -0.20450
C212        C  0.53897456  0.44691691  0.36672186    -0.07010
C213        C  0.52917608  0.39586453  0.36305097     0.13850
C214        C  0.55385779  0.37779247  0.38389537    -0.20500
C215        C  0.58760353  0.40899439  0.40869201    -0.07020
C216        C  0.59675667  0.45996954  0.41255019     0.13840
C217        C  0.62929851  0.49495193  0.43993384    -0.23850
H218        H  0.58006443  0.51714164  0.39424458     0.15130
H219        H  0.54613367  0.33862992  0.38105186     0.15160
C220        C  0.49107344  0.35932354  0.33836788    -0.23800
H221        H  0.62895946  0.53176441  0.44029486     0.05330
H222        H  0.66995030  0.50500739  0.43685733     0.08600
H223        H  0.61423092  0.47563319  0.46391505     0.08600
H224        H  0.50593829  0.37216473  0.31327700     0.08580
H225        H  0.45352435  0.35748440  0.34138064     0.08580
H226        H  0.48434488  0.31959468  0.34127694     0.05360
C227        C  0.84743493  0.39285020  0.41002749    -0.20450
C228        C  0.81174824  0.40984678  0.40718943    -0.07010
C229        C  0.82030954  0.44741618  0.38299886     0.13850
C230        C  0.86530906  0.46849853  0.36382215    -0.20500
C231        C  0.90186882  0.45314799  0.36808022    -0.07020
C232        C  0.89203107  0.41370406  0.39079408     0.13840
C233        C  0.92762164  0.39229527  0.39431515    -0.23850
H234        H  0.84117284  0.36367351  0.42801542     0.15130
H235        H  0.87265274  0.49804626  0.34584171     0.15160
C236        C  0.78235195  0.46519115  0.37672187    -0.23800
H237        H  0.91179624  0.35891525  0.41140373     0.05370
H238        H  0.96542837  0.42196552  0.40412327     0.08600
H239        H  0.93314201  0.37895052  0.37014651     0.08600
H240        H  0.78014991  0.48645868  0.39823662     0.08580
H241        H  0.74379245  0.43141003  0.37146635     0.08580
H242        H  0.79381926  0.49173758  0.35538539     0.05360
C243        C  0.82087930  0.44294484  0.06642475    -0.20450
C244        C  0.81172210  0.40194441  0.04565241    -0.07010
C245        C  0.84738250  0.38430838  0.04501933     0.13850
C246        C  0.89106052  0.40814760  0.06508304    -0.20500
C247        C  0.90032753  0.44925378  0.08563153    -0.07020
C248        C  0.86476440  0.46683446  0.08645266     0.13840
C249        C  0.87416538  0.51225663  0.10716263    -0.23850
H250        H  0.79396689  0.45690131  0.06655617     0.15130
H251        H  0.91887476  0.39534118  0.06429876     0.15160
C252        C  0.84138056  0.34240208  0.52199137    -0.23800
H253        H  0.84378013  0.52241557  0.10355847     0.05370
H254        H  0.91177097  0.54647197  0.10055159     0.08600
H255        H  0.87432069  0.50315561  0.13344744     0.08600
H256        H  0.83883839  0.35331796  0.49637225     0.08580
H257        H  0.80621601  0.30539934  0.52829282     0.08580
H258        H  0.87454126  0.33594432  0.52346400     0.05360
C259        C  0.40696532  0.89451062  0.38596388    -0.20450
C260        C  0.44917212  0.90445694  0.36639986    -0.07010
C261        C  0.46777150  0.86971122  0.36674568     0.13850
C262        C  0.44368287  0.82580441  0.38695857    -0.20500
C263        C  0.40156943  0.81592074  0.40692386    -0.07020
C264        C  0.38296153  0.85095925  0.40629824     0.13840
C265        C  0.33967546  0.84464710  0.42811798    -0.23850
H266        H  0.39339897  0.92178710  0.38576954     0.15130
H267        H  0.45841244  0.79950868  0.38760424     0.15160
C268        C  0.51435246  0.88005752  0.34702033    -0.23800
H269        H  0.33277677  0.87750940  0.42568008     0.05370
H270        H  0.34924123  0.84265907  0.45412499     0.08600
H271        H  0.30333287  0.80912324  0.42142767     0.08600
H272        H  0.54772275  0.91801287  0.35398090     0.08580
H273        H  0.50648889  0.88028833  0.32053467     0.08580
H274        H  0.52498462  0.85007678  0.35123705     0.05360
C275        C  0.54991439  0.17430001  0.38726603    -0.20450
C276        C  0.59171817  0.18441061  0.40749900    -0.07010
C277        C  0.61062157  0.14963578  0.40740765     0.13850
C278        C  0.58751605  0.10625986  0.38704097    -0.20500
C279        C  0.54588299  0.09626370  0.36693569    -0.07020
C280        C  0.52672837  0.13058218  0.36697444     0.13840
C281        C  0.48054763  0.12000866  0.34678834    -0.23850
H282        H  0.53491439  0.20037652  0.38765934     0.15130
H283        H  0.60141171  0.07924877  0.38718144     0.15160
C284        C  0.65326420  0.15611961  0.42988461    -0.23800
H285        H  0.46935400  0.14959729  0.35082466     0.05370
H286        H  0.44726028  0.08177013  0.35349286     0.08600
H287        H  0.48920098  0.12029579  0.32038942     0.08600
H288        H  0.64289049  0.15821382  0.45569118     0.08580
H289        H  0.68978002  0.19166218  0.42337954     0.08580
H290        H  0.66029016  0.12328990  0.42799252     0.05360
C291        C  0.37760351  0.82131368  0.06657147    -0.20450
C292        C  0.41050341  0.81428469  0.04555736    -0.07010
C293        C  0.46373092  0.85183802  0.04509916     0.13850
C294        C  0.48220005  0.89538950  0.06527286    -0.20500
C295        C  0.44913289  0.90261362  0.08583839    -0.07020
C296        C  0.39623509  0.86496297  0.08671993     0.13840
C297        C  0.35895421  0.87171961  0.10774094    -0.23850
H298        H  0.33684172  0.79291448  0.06676204     0.15130
H299        H  0.52266991  0.92470899  0.06455037     0.15160
C300        C  0.50100424  0.84801479  0.02223048    -0.23800
H301        H  0.31865176  0.84008438  0.10398304     0.05370
H302        H  0.36103478  0.90879116  0.10168027     0.08600
H303        H  0.36833861  0.87146145  0.13391988     0.08600
H304        H  0.48789548  0.84534414  0.49653582     0.08580
H305        H  0.50388687  0.81357696  0.02844794     0.08580
H306        H  0.54031713  0.88227785  0.02401270     0.05360
C307        C  0.52908245  0.15352559  0.04760828    -0.20450
C308        C  0.58300509  0.18467030  0.04622973    -0.07010
C309        C  0.61350704  0.17179381  0.06614905     0.13850
C310        C  0.58933445  0.12701661  0.08555960    -0.20500
C311        C  0.53576278  0.09459304  0.08531766    -0.07020
C312        C  0.50513792  0.10852329  0.06675423     0.13840
C313        C  0.44722114  0.07613891  0.06728518    -0.23850
H314        H  0.50550461  0.16336204  0.03268460     0.15130
H315        H  0.61243138  0.11635117  0.10033420     0.15160
C316        C  0.67134702  0.20513913  0.06755652    -0.23800
H317        H  0.42918794  0.09362956  0.05229011     0.05370
H318        H  0.43308068  0.07243192  0.09280703     0.08600
H319        H  0.43452069  0.03717577  0.05734086     0.08600
H320        H  0.68229320  0.24540557  0.07374951     0.08580
H321        H  0.68864876  0.20440818  0.04374782     0.08580
H322        H  0.68812248  0.19132573  0.08644199     0.05360
C323        C  0.54110224  0.01678562  0.20758782    -0.20450
C324        C  0.49398835  0.99949144  0.19159885    -0.07010
C325        C  0.44875853  0.98326119  0.21014762     0.13850
C326        C  0.45160483  0.98413565  0.24440958    -0.20500
C327        C  0.49866258  0.00129893  0.26042256    -0.07020
C328        C  0.54396250  0.01769388  0.24188344     0.13840
C329        C  0.59493636  0.03477493  0.25821489    -0.23850
H330        H  0.57561749  0.02913941  0.19313382     0.15130
H331        H  0.41705856  0.97175221  0.25883899     0.15160
C332        C  0.39777964  0.96613390  0.19383570    -0.23800
H333        H  0.62599931  0.04454834  0.24003886     0.05370
H334        H  0.59186965  0.00330086  0.27410719     0.08600
H335        H  0.60627239  0.06958093  0.27328206     0.08600
H336        H  0.38653778  0.93130987  0.17885819     0.08580
H337        H  0.40080525  0.99751640  0.17787156     0.08580
H338        H  0.36671116  0.95639035  0.21200092     0.05360
C339        C  0.47049215  0.95167786  0.60417157     0.02990
C340        C  0.49150989  0.99851717  0.58698929    -0.13160
C341        C  0.51294138  0.04554475  0.60380489     0.00490
C342        C  0.51412434  0.04571920  0.63807912    -0.11690
C343        C  0.49303530  0.99909039  0.65548795     0.02980
C344        C  0.47165389  0.95218632  0.63847273    -0.11110
H345        H  0.49141990  0.99838461  0.56046182     0.08570
H346        H  0.53099711  0.08200676  0.65117824     0.06100
H347        H  0.45667377  0.91628718  0.65192804     0.05950
C348        C  0.47516601  0.95357065  0.84792863     0.02990
C349        C  0.47527555  0.95407419  0.81363820    -0.13160
C350        C  0.49916716  0.00111100  0.79654330     0.00490
C351        C  0.52197428  0.04778050  0.81389354    -0.11690
C352        C  0.52105176  0.04753798  0.84818276     0.02980
C353        C  0.49794889  0.00037384  0.86502487    -0.11110
H354        H  0.45656774  0.91802136  0.80026084     0.08570
H355        H  0.54038894  0.08412749  0.80072975     0.06100
H356        H  0.49751083  0.00008621  0.89155738     0.05950
Fe357      Fe  0.69924127  0.29520381  0.97672272     1.65780
Fe358      Fe  0.70181335  0.40913839  0.97722106     1.73250
Fe359      Fe  0.58706100  0.29636590  0.97603215     1.54410
O360        O  0.58079219  0.23935486  0.94425481    -0.81820
O361        O  0.66241869  0.41197762  0.51753653    -0.80120
O362        O  0.65984134  0.25280195  0.93661901    -0.84320
O363        O  0.64713310  0.23828884  0.50785794    -0.79180
O364        O  0.58468889  0.33773094  0.93636114    -0.80950
O365        O  0.75854260  0.41375957  0.50826028    -0.83700
C366        C  0.60566022  0.22789974  0.52231258     0.97070
C367        C  0.61207505  0.22852951  0.93049211     1.04510
O368        O  0.66263592  0.33350903  0.97661921    -1.12680
O369        O  0.74496320  0.41319457  0.93690127    -0.75110
O370        O  0.75655140  0.34674159  0.94558878    -0.78600
O371        O  0.58148649  0.25131777  0.51577069    -0.79290
C372        C  0.76793512  0.38849879  0.93081873     0.95970
O373        O  0.74241193  0.33380828  0.51690125    -0.77250
O374        O  0.65099373  0.41592343  0.94641399    -0.82440
C375        C  0.61446388  0.38874066  0.52323848     0.98590
C376        C  0.60926382  0.38618474  0.93159826     1.04510
O377        O  0.58298126  0.34797889  0.50787102    -0.78080
C378        C  0.76791563  0.38181455  0.52256950     1.02810
C379        C  0.52153799  0.47785734  0.60374714     0.02990
C380        C  0.49796015  0.50001348  0.58581259    -0.13160
C381        C  0.47080646  0.52023326  0.60179804     0.00490
C382        C  0.46991629  0.52069061  0.63615375    -0.11690
C383        C  0.49519679  0.50032491  0.65431905     0.02980
C384        C  0.52042994  0.47834286  0.63795571    -0.11110
H385        H  0.50051877  0.50108477  0.55935481     0.08570
H386        H  0.44886049  0.53604730  0.64871383     0.06100
H387        H  0.53882609  0.46130551  0.65181424     0.05950
C388        C  0.51166518  0.46796177  0.84748709     0.02990
C389        C  0.51368254  0.47005861  0.81313683    -0.13160
C390        C  0.48958311  0.49236973  0.79564190     0.00490
C391        C  0.46584481  0.51527711  0.81270395    -0.11690
C392        C  0.46425119  0.51417808  0.84696371     0.02980
C393        C  0.48655241  0.48992689  0.86410572    -0.11110
H394        H  0.53527501  0.45595631  0.79996554     0.08570
H395        H  0.44953185  0.53476952  0.79929582     0.06100
H396        H  0.48535552  0.48923692  0.89062697     0.05950
Fe397      Fe  0.29334471  0.70357988  0.97705077     1.65780
Fe398      Fe  0.29148670  0.58952685  0.97415338     1.73250
Fe399      Fe  0.40628472  0.70324461  0.97483787     1.54410
O400        O  0.41198425  0.75933434  0.94254320    -0.81820
O401        O  0.33179813  0.58388369  0.51306630    -0.80120
O402        O  0.33388503  0.74965268  0.93812426    -0.84320
O403        O  0.34412056  0.75849581  0.50955357    -0.79180
O404        O  0.40983530  0.66229346  0.93555541    -0.80950
O405        O  0.23561396  0.58296058  0.50667714    -0.83700
C406        C  0.38751062  0.77089672  0.52195388     0.97070
C407        C  0.38107606  0.77197056  0.93029052     1.04510
O408        O  0.33050960  0.66550648  0.97538589    -1.12680
O409        O  0.24750631  0.58771694  0.93495499    -0.75110
O410        O  0.23726286  0.65464475  0.94452763    -0.78600
O411        O  0.41235647  0.74883488  0.51405771    -0.79290
C412        C  0.22551754  0.61342159  0.92910972     0.95970
O413        O  0.24879481  0.66153379  0.51624489    -0.77250
O414        O  0.34118202  0.58403127  0.94163881    -0.82440
C415        C  0.37912714  0.60975140  0.52069768     0.98590
C416        C  0.38428270  0.61472569  0.92849871     1.04510
O417        O  0.41053093  0.65254638  0.50730237    -0.78080
C418        C  0.22527661  0.61338767  0.52193581     1.02810
C419        C  0.04319879  0.52333324  0.60337106     0.02990
C420        C  0.99615616  0.49923426  0.58665185    -0.13160
C421        C  0.94945852  0.47534370  0.60391818     0.00490
C422        C  0.95009276  0.47525330  0.63823335    -0.11690
C423        C  0.99703150  0.49976730  0.65520998     0.02980
C424        C  0.04353188  0.52296563  0.63764080    -0.11110
H425        H  0.99590024  0.49912855  0.56012278     0.08570
H426        H  0.91418470  0.45611781  0.65174174     0.06100
H427        H  0.07990366  0.54098109  0.65058473     0.05950
C428        C  0.04397403  0.52956627  0.84741970     0.02990
C429        C  0.99771048  0.50606391  0.86506302    -0.13160
C430        C  0.95028718  0.47922760  0.84889118     0.00490
C431        C  0.94930580  0.47769505  0.81457881    -0.11690
C432        C  0.99548407  0.50072557  0.79662317     0.02980
C433        C  0.04274692  0.52648176  0.81320454    -0.11110
H434        H  0.99869116  0.50836174  0.89153137     0.08570
H435        H  0.91270828  0.45836925  0.80191396     0.06100
H436        H  0.07849929  0.54420406  0.79949532     0.05950
C437        C  0.97688608  0.45392196  0.70853044    -0.20450
C438        C  0.99723634  0.50075598  0.69140472    -0.07010
C439        C  0.01622910  0.54740086  0.70895232     0.13850
C440        C  0.01497480  0.54607084  0.74327163    -0.20500
C441        C  0.99475563  0.49927929  0.76042203    -0.07020
C442        C  0.97563831  0.45259681  0.74288071     0.13840
C443        C  0.95555920  0.40162609  0.76024145    -0.23850
H444        H  0.96237645  0.41830434  0.69489965     0.15130
H445        H  0.02948888  0.58171241  0.75687994     0.15160
C446        C  0.03628407  0.59839743  0.69160715    -0.23800
H447        H  0.94467978  0.36950619  0.74272383     0.05370
H448        H  0.92081978  0.39243708  0.77474908     0.08600
H449        H  0.98568593  0.40339282  0.77675251     0.08600
H450        H  0.00617382  0.59659529  0.67506129     0.08580
H451        H  0.07107870  0.60766505  0.67713228     0.08580
H452        H  0.04706979  0.63049291  0.70912848     0.05360
C453        C  0.15292871  0.61828453  0.90378259    -0.20450
C454        C  0.18274958  0.59415980  0.90470759    -0.07010
C455        C  0.16894803  0.55140212  0.88366519     0.13850
C456        C  0.12452557  0.53259051  0.86422402    -0.20500
C457        C  0.09350315  0.55498663  0.86518996    -0.07020
C458        C  0.10866763  0.59927043  0.88440510     0.13840
C459        C  0.07854629  0.62693969  0.88427691    -0.23850
H460        H  0.16325580  0.65156692  0.91905055     0.15130
H461        H  0.11282961  0.49898547  0.84894467     0.15160
C462        C  0.20002882  0.52484619  0.88135177    -0.23800
H463        H  0.09725126  0.66236603  0.89951086     0.05370
H464        H  0.03930118  0.60156402  0.89417897     0.08600
H465        H  0.07572952  0.63845320  0.85887734     0.08600
H466        H  0.19866275  0.50586157  0.90494893     0.08580
H467        H  0.24049664  0.55333054  0.87478906     0.08580
H468        H  0.18479964  0.49435812  0.86228908     0.05360
C469        C  0.15262635  0.61622347  0.54835714    -0.20450
C470        C  0.18181733  0.59172879  0.54565737    -0.07010
C471        C  0.16683742  0.54617779  0.56410998     0.13850
C472        C  0.12221546  0.52557974  0.58357442    -0.20500
C473        C  0.09200401  0.54887301  0.58476050    -0.07020
C474        C  0.10784265  0.59522062  0.56749869     0.13840
C475        C  0.07762282  0.62267911  0.56936971    -0.23850
H476        H  0.16386028  0.65116073  0.53449894     0.15130
H477        H  0.11000832  0.49032919  0.59731817     0.15160
C478        C  0.19774957  0.51934874  0.56391974    -0.23800
H479        H  0.09632571  0.65931220  0.55520117     0.05370
H480        H  0.07456700  0.63198372  0.59525787     0.08600
H481        H  0.03843200  0.59785213  0.55927130     0.08600
H482        H  0.23831311  0.54709354  0.57062873     0.08580
H483        H  0.19629325  0.50292927  0.53939344     0.08580
H484        H  0.18244739  0.48692291  0.58173293     0.05360
C485        C  0.47677752  0.58252055  0.88578509    -0.20450
C486        C  0.44322170  0.54187942  0.86537561    -0.07010
C487        C  0.39057832  0.52689611  0.86449062     0.13850
C488        C  0.37274874  0.55277455  0.88437659    -0.20500
C489        C  0.40624528  0.59319404  0.90514647    -0.07020
C490        C  0.45911338  0.60826576  0.90576834     0.13840
C491        C  0.49679384  0.64938024  0.92867309    -0.23850
H492        H  0.51705096  0.59347128  0.88651866     0.15130
H493        H  0.33218302  0.54070344  0.88420427     0.15160
C494        C  0.35273771  0.48214208  0.84388216    -0.23800
H495        H  0.53565124  0.65377175  0.92711713     0.05370
H496        H  0.48319914  0.63906711  0.95433600     0.08600
H497        H  0.50093839  0.68723657  0.92231120     0.08600
H498        H  0.35374498  0.44685267  0.85069685     0.08580
H499        H  0.36241208  0.49070517  0.81758737     0.08580
H500        H  0.31275205  0.47410009  0.84737968     0.05360
C501        C  0.45785325  0.59332086  0.58745459    -0.20450
C502        C  0.44410064  0.54164180  0.58256044    -0.07010
C503        C  0.40532026  0.51154646  0.55952499     0.13850
C504        C  0.38329674  0.53461339  0.54090128    -0.20500
C505        C  0.39927642  0.58704474  0.54434265    -0.07020
C506        C  0.43607269  0.61653783  0.56853100     0.13840
C507        C  0.45161714  0.67194440  0.57502295    -0.23850
H508        H  0.48671511  0.61593902  0.60565383     0.15130
H509        H  0.35474968  0.51194855  0.02254342     0.15160
C510        C  0.38636406  0.45499746  0.55458014    -0.23800
H511        H  0.47809506  0.68785582  0.59625520     0.05370
H512        H  0.41691077  0.67462975  0.58049155     0.08600
H513        H  0.47186859  0.69633475  0.55347214     0.08600
H514        H  0.37502839  0.43441843  0.57842686     0.08580
H515        H  0.41673751  0.44996142  0.54296683     0.08580
H516        H  0.35231378  0.43664425  0.03819464     0.05360
C517        C  0.46702039  0.45153921  0.70638619    -0.20450
C518        C  0.49332284  0.49947894  0.69048384    -0.07010
C519        C  0.51844349  0.54518555  0.70920353     0.13850
C520        C  0.51677866  0.54172607  0.74350374    -0.20500
C521        C  0.49078343  0.49370480  0.75942082    -0.07020
C522        C  0.46506636  0.44807775  0.74064265     0.13840
C523        C  0.43419201  0.39585635  0.75658276    -0.23850
H524        H  0.44762658  0.41666409  0.69184013     0.15130
H525        H  0.53617459  0.57660660  0.75803703     0.15160
C526        C  0.54820301  0.59742138  0.69310829    -0.23800
H527        H  0.41438946  0.36471071  0.73820521     0.05370
H528        H  0.40445227  0.39545267  0.77285979     0.08600
H529        H  0.45980211  0.38695866  0.77107527     0.08600
H530        H  0.52198225  0.60519687  0.67830627     0.08580
H531        H  0.57854288  0.59865970  0.67702678     0.08580
H532        H  0.56714133  0.62881250  0.71142328     0.05360
C533        C  0.53973225  0.38302433  0.55314374    -0.20450
C534        C  0.59330182  0.41042189  0.54753820    -0.07010
C535        C  0.62370699  0.45874007  0.56355179     0.13850
C536        C  0.59929277  0.47903681  0.58268518    -0.20500
C537        C  0.54578711  0.45262251  0.58636060    -0.07020
C538        C  0.51577724  0.40348683  0.57229202     0.13840
C539        C  0.45836611  0.37255623  0.57750373    -0.23850
H540        H  0.51589507  0.34567610  0.54187854     0.15130
H541        H  0.62189249  0.51648223  0.59414823     0.15160
C542        C  0.68154037  0.49005503  0.56048743    -0.23800
H543        H  0.44079215  0.33431894  0.56534739     0.05370
H544        H  0.44006983  0.39357014  0.56733474     0.08600
H545        H  0.44982258  0.36608262  0.60408548     0.08600
H546        H  0.69266276  0.50213634  0.53467797     0.08580
H547        H  0.69873183  0.46701623  0.56914915     0.08580
H548        H  0.69825608  0.52573351  0.57547508     0.05360
C549        C  0.57294219  0.47819225  0.89126931    -0.20450
C550        C  0.53897454  0.44691691  0.86672186    -0.07010
C551        C  0.52917607  0.39586453  0.86305097     0.13850
C552        C  0.55385777  0.37779246  0.88389537    -0.20500
C553        C  0.58760351  0.40899439  0.90869201    -0.07020
C554        C  0.59675665  0.45996953  0.91255020     0.13840
C555        C  0.62929848  0.49495192  0.93993386    -0.23850
H556        H  0.58006441  0.51714163  0.89424459     0.15130
H557        H  0.54613365  0.33862991  0.88105187     0.15160
C558        C  0.49107344  0.35932355  0.83836788    -0.23800
H559        H  0.62895942  0.53176440  0.94029488     0.05330
H560        H  0.66995027  0.50500739  0.93685734     0.08600
H561        H  0.61423089  0.47563317  0.96391506     0.08600
H562        H  0.50593830  0.37216474  0.81327700     0.08580
H563        H  0.45352435  0.35748440  0.84138063     0.08580
H564        H  0.48434487  0.31959468  0.84127693     0.05360
C565        C  0.84743477  0.39285001  0.91002738    -0.20450
C566        C  0.81174819  0.40984674  0.90718941    -0.07010
C567        C  0.82030960  0.44741628  0.88299891     0.13850
C568        C  0.86530910  0.46849860  0.86382220    -0.20500
C569        C  0.90186875  0.45314790  0.86808018    -0.07020
C570        C  0.89203090  0.41370384  0.89079396     0.13840
C571        C  0.92762136  0.39229492  0.89431494    -0.23850
H572        H  0.84117261  0.36367321  0.92801525     0.15130
H573        H  0.87265287  0.49804644  0.84584182     0.15160
C574        C  0.78235214  0.46519146  0.87672202    -0.23800
H575        H  0.91179592  0.35891485  0.91140348     0.05370
H576        H  0.96542814  0.42196508  0.90412305     0.08600
H577        H  0.93314166  0.37895020  0.87014627     0.08600
H578        H  0.78015019  0.48645894  0.89823683     0.08580
H579        H  0.74379259  0.43141045  0.87146648     0.08580
H580        H  0.79381952  0.49173799  0.85538559     0.05360
C581        C  0.82087935  0.44294489  0.56642471    -0.20450
C582        C  0.81172209  0.40194440  0.54565242    -0.07010
C583        C  0.84738243  0.38430829  0.54501941     0.13850
C584        C  0.89106046  0.40814752  0.56508310    -0.20500
C585        C  0.90032753  0.44925378  0.58563154    -0.07020
C586        C  0.86476445  0.46683452  0.58645262     0.13840
C587        C  0.87416549  0.51225676  0.60716254    -0.23850
H588        H  0.79396699  0.45690142  0.56655609     0.15130
H589        H  0.91887466  0.39534105  0.56429887     0.15160
C590        C  0.84138070  0.34240228  0.02199123    -0.23800
H591        H  0.84378027  0.52241573  0.60355835     0.05370
H592        H  0.91177110  0.54647206  0.60055146     0.08600
H593        H  0.87432081  0.50315580  0.63344736     0.08600
H594        H  0.83883851  0.35331823  0.99637213     0.08580
H595        H  0.80621618  0.30539949  0.02829264     0.08580
H596        H  0.87454144  0.33594457  0.02346382     0.05360
C597        C  0.40696530  0.89451060  0.88596387    -0.20450
C598        C  0.44917211  0.90445693  0.86639985    -0.07010
C599        C  0.46777149  0.86971122  0.86674568     0.13850
C600        C  0.44368285  0.82580440  0.88695856    -0.20500
C601        C  0.40156941  0.81592072  0.90692384    -0.07020
C602        C  0.38296151  0.85095923  0.90629822     0.13840
C603        C  0.33967543  0.84464708  0.92811795    -0.23850
H604        H  0.39339895  0.92178708  0.88576953     0.15130
H605        H  0.45841243  0.79950868  0.88760424     0.15160
C606        C  0.51435246  0.88005752  0.84702032    -0.23800
H607        H  0.33277673  0.87750938  0.92568005     0.05370
H608        H  0.34924119  0.84265904  0.95412497     0.08600
H609        H  0.30333284  0.80912322  0.92142764     0.08600
H610        H  0.54772274  0.91801287  0.85398090     0.08580
H611        H  0.50648889  0.88028833  0.82053467     0.08580
H612        H  0.52498462  0.85007678  0.85123704     0.05360
C613        C  0.54991436  0.17429999  0.88726604    -0.20450
C614        C  0.59171814  0.18441059  0.90749901    -0.07010
C615        C  0.61062154  0.14963577  0.90740767     0.13850
C616        C  0.58751602  0.10625985  0.88704098    -0.20500
C617        C  0.54588297  0.09626369  0.86693569    -0.07020
C618        C  0.52672835  0.13058217  0.86697444     0.13840
C619        C  0.48054762  0.12000865  0.84678834    -0.23850
H620        H  0.53491436  0.20037651  0.88765935     0.15130
H621        H  0.60141169  0.07924875  0.88718145     0.15160
C622        C  0.65326417  0.15611959  0.92988462    -0.23800
H623        H  0.46935399  0.14959728  0.85082466     0.05370
H624        H  0.44726027  0.08177012  0.85349285     0.08600
H625        H  0.48920097  0.12029579  0.82038942     0.08600
H626        H  0.64289046  0.15821380  0.95569120     0.08580
H627        H  0.68977999  0.19166216  0.92337955     0.08580
H628        H  0.66029013  0.12328988  0.92799254     0.05360
C629        C  0.37760354  0.82131368  0.56657149    -0.20450
C630        C  0.41050344  0.81428469  0.54555737    -0.07010
C631        C  0.46373094  0.85183802  0.54509917     0.13850
C632        C  0.48220008  0.89538951  0.56527286    -0.20500
C633        C  0.44913292  0.90261362  0.58583840    -0.07020
C634        C  0.39623512  0.86496297  0.58671994     0.13840
C635        C  0.35895424  0.87171962  0.60774095    -0.23850
H636        H  0.33684175  0.79291448  0.56676206     0.15130
H637        H  0.52266994  0.92470899  0.56455037     0.15160
C638        C  0.50100426  0.84801479  0.52223049    -0.23800
H639        H  0.31865179  0.84008438  0.60398305     0.05370
H640        H  0.36103481  0.90879116  0.60168028     0.08600
H641        H  0.36833865  0.87146146  0.63391989     0.08600
H642        H  0.48789546  0.84534415  0.99653581     0.08580
H643        H  0.50388689  0.81357695  0.52844796     0.08580
H644        H  0.54031715  0.88227785  0.52401271     0.05360
C645        C  0.52908247  0.15352558  0.54760827    -0.20450
C646        C  0.58300510  0.18467030  0.54622972    -0.07010
C647        C  0.61350706  0.17179381  0.56614903     0.13850
C648        C  0.58933447  0.12701662  0.58555959    -0.20500
C649        C  0.53576280  0.09459305  0.58531765    -0.07020
C650        C  0.50513794  0.10852329  0.56675422     0.13840
C651        C  0.44722116  0.07613891  0.56728517    -0.23850
H652        H  0.50550462  0.16336204  0.53268459     0.15130
H653        H  0.61243140  0.11635118  0.60033418     0.15160
C654        C  0.67134703  0.20513914  0.56755650    -0.23800
H655        H  0.42918796  0.09362956  0.55229010     0.05370
H656        H  0.43308070  0.07243192  0.59280702     0.08600
H657        H  0.43452072  0.03717577  0.55734085     0.08600
H658        H  0.68229322  0.24540557  0.57374949     0.08580
H659        H  0.68864878  0.20440819  0.54374780     0.08580
H660        H  0.68812250  0.19132574  0.58644197     0.05360
C661        C  0.54110226  0.01678565  0.70758782    -0.20450
C662        C  0.49398838  0.99949146  0.69159885    -0.07010
C663        C  0.44875855  0.98326122  0.71014761     0.13850
C664        C  0.45160484  0.98413567  0.74440957    -0.20500
C665        C  0.49866259  0.00129895  0.76042255    -0.07020
C666        C  0.54396252  0.01769390  0.74188344     0.13840
C667        C  0.59493638  0.03477495  0.75821489    -0.23850
H668        H  0.57561751  0.02913944  0.69313382     0.15130
H669        H  0.41705858  0.97175223  0.75883898     0.15160
C670        C  0.39777967  0.96613393  0.69383569    -0.23800
H671        H  0.62599933  0.04454836  0.74003887     0.05370
H672        H  0.59186966  0.00330087  0.77410719     0.08600
H673        H  0.60627240  0.06958094  0.77328207     0.08600
H674        H  0.38653780  0.93130990  0.67885818     0.08580
H675        H  0.40080528  0.99751643  0.67787155     0.08580
H676        H  0.36671118  0.95639037  0.71200091     0.05360
loop_ 
_geom_bond_atom_site_label_1 
_geom_bond_atom_site_label_2 
_geom_bond_distance 
_geom_bond_site_symmetry_2 
_ccdc_geom_bond_type 
C1            C2   1.403       .  A
C1            C6   1.402       .  A
C1          C295   1.481       .  S
C2            C3   1.402   1_565  A
C2            H7   1.084       .  S
C3            C4   1.401       .  A
C3          C311   1.478       .  S
C4            C5   1.403   1_545  A
C4            H8   1.084       .  S
C5            C6   1.403       .  A
C5          C324   1.476       .  S
C6            H9   1.084       .  S
C10          C11   1.402       .  A
C10          C15   1.401   1_565  A
C10         C260   1.479       .  S
C11          C12   1.403   1_565  A
C11          H16   1.084       .  S
C12          C13   1.403       .  A
C12         C327   1.476       .  S
C13          C14   1.402       .  A
C13          H17   1.083       .  S
C14          C15   1.401       .  A
C14         C279   1.479       .  S
C15          H18   1.085       .  S
Fe19         O30   1.954       .  S
Fe19         O32   2.069       .  S
Fe19         O24   2.049       .  S
Fe19        O373   2.053       .  S
Fe19        O363   2.069       .  S
Fe20         O30   1.960       .  S
Fe20         O31   2.063       .  S
Fe20         O36   2.070       .  S
Fe20        O361   2.057       .  S
Fe20        O365   2.076       .  S
Fe21         O30   1.964       .  S
Fe21         O26   2.064       .  S
Fe21         O22   2.082       .  S
Fe21        O377   2.076       .  S
Fe21        O371   2.064       .  S
O22          C29   1.272       .  A
O23        Fe358   2.057   1_554  S
O23          C37   1.267       .  A
O24          C29   1.266       .  A
O25        Fe357   2.069   1_554  S
O25          C28   1.269       .  A
O26          C38   1.270       .  A
O27        Fe358   2.076   1_554  S
O27          C40   1.270       .  A
C28         C308   1.485       .  S
C28          O33   1.270       .  A
C29         C276   1.483       .  S
O31          C34   1.269       .  A
O32          C34   1.272       .  A
O33        Fe359   2.064   1_554  S
C34         C228   1.492       .  S
O35        Fe357   2.053   1_554  S
O35          C40   1.266       .  A
O36          C38   1.269       .  A
C37         C196   1.496       .  S
C37          O39   1.273       .  A
C38         C215   1.490       .  S
O39        Fe359   2.076   1_554  S
C40         C244   1.481       .  S
C41          C42   1.400       .  A
C41          C46   1.399       .  A
C41         C199   1.474       .  S
C42          C43   1.402       .  A
C42          H47   1.083       .  S
C43          C44   1.405       .  A
C43         C164   1.483       .  S
C44          C45   1.405       .  A
C44          H48   1.084       .  S
C45          C46   1.403       .  A
C45         C180   1.479       .  S
C46          H49   1.084       .  S
C50          C51   1.405       .  A
C50          C55   1.405       .  A
C50         C212   1.489       .  S
C51          C52   1.406       .  A
C51          H56   1.082       .  S
C52          C53   1.403       .  A
C52         C183   1.481       .  S
C53          C54   1.401       .  A
C53          H57   1.083       .  S
C54          C55   1.402       .  A
C54         C148   1.481       .  S
C55          H58   1.084       .  S
Fe59         O70   1.964       .  S
Fe59         O72   2.068       .  S
Fe59         O64   2.054       .  S
Fe59        O413   2.059       .  S
Fe59        O403   2.069       .  S
Fe60         O70   1.970       .  S
Fe60         O71   2.062       .  S
Fe60         O76   2.069       .  S
Fe60        O401   2.059       .  S
Fe60        O405   2.073       .  S
Fe61         O70   1.969       .  S
Fe61         O66   2.060       .  S
Fe61         O62   2.076       .  S
Fe61        O417   2.070       .  S
Fe61        O411   2.057       .  S
O62          C69   1.272       .  A
O63        Fe398   2.059   1_554  S
O63          C77   1.270       .  A
O64          C69   1.267       .  A
O65        Fe397   2.069   1_554  S
O65          C68   1.269       .  A
O66          C78   1.267       .  A
O67        Fe398   2.073   1_554  S
O67          C80   1.269       .  A
C68         C292   1.484       .  S
C68          O73   1.267       .  A
C69         C263   1.485       .  S
O71          C74   1.268       .  A
O72          C74   1.271       .  A
O73        Fe399   2.057   1_554  S
C74         C116   1.496       .  S
O75        Fe397   2.059   1_554  S
O75          C80   1.269       .  A
O76          C78   1.269       .  A
C77         C167   1.478       .  S
C77          O79   1.270       .  A
C78         C151   1.483       .  S
O79        Fe399   2.070   1_554  S
C80         C132   1.487       .  S
C81          C82   1.401   1_455  A
C81          C86   1.401       .  A
C81         C135   1.478       .  S
C82          C83   1.402       .  A
C82          H87   1.084       .  S
C83          C84   1.403       .  A
C83         C247   1.480       .  S
C84          C85   1.404       .  A
C84          H88   1.084       .  S
C85          C86   1.404   1_655  A
C85         C100   1.480       .  S
C86          H89   1.084       .  S
C90          C91   1.401   1_455  A
C90          C95   1.401       .  A
C90         C119   1.478       .  S
C91          C92   1.402       .  A
C91          H96   1.084       .  S
C92          C93   1.403       .  A
C92         C231   1.482       .  S
C93          C94   1.405       .  A
C93          H97   1.083       .  S
C94          C95   1.404   1_655  A
C94         C103   1.480       .  S
C95          H98   1.084       .  S
C99         C100   1.403       .  A
C99         C104   1.404       .  A
C99         H106   1.084       .  S
C100        C101   1.413   1_655  A
C101        C102   1.403       .  A
C101        C108   1.508       .  S
C102        C103   1.403   1_455  A
C102        H107   1.084       .  S
C103        C104   1.414       .  A
C104        C105   1.507       .  S
C105        H109   1.111       .  S
C105        H110   1.108       .  S
C105        H111   1.110       .  S
C108        H112   1.110       .  S
C108        H113   1.109       .  S
C108        H114   1.111       .  S
C115        C116   1.411       .  A
C115        C120   1.401       .  A
C115        H122   1.083       .  S
C116        C117   1.423       .  A
C117        C118   1.406       .  A
C117        C124   1.508       .  S
C118        C119   1.400       .  A
C118        H123   1.084       .  S
C119        C120   1.409       .  A
C120        C121   1.508       .  S
C121        H125   1.111       .  S
C121        H126   1.108       .  S
C121        H127   1.110       .  S
C124        H128   1.110       .  S
C124        H129   1.110       .  S
C124        H130   1.111       .  S
C131        C132   1.407       .  A
C131        C136   1.402       .  A
C131        H138   1.084       .  S
C132        C133   1.420       .  A
C133        C134   1.406       .  A
C133        C140   1.508       .  S
C134        C135   1.401       .  A
C134        H139   1.084       .  S
C135        C136   1.410       .  A
C136        C137   1.507       .  S
C137        H141   1.111       .  S
C137        H142   1.111       .  S
C137        H143   1.109       .  S
C140        H144   1.110       .  S
C140        H145   1.109       .  S
C140        H146   1.111       .  S
C147        C148   1.401       .  A
C147        C152   1.402       .  A
C147        H154   1.084       .  S
C148        C149   1.412       .  A
C149        C150   1.406       .  A
C149        C156   1.507       .  S
C150        C151   1.406       .  A
C150        H155   1.084       .  S
C151        C152   1.418       .  A
C152        C153   1.509       .  S
C153        H157   1.111       .  S
C153        H158   1.111       .  S
C153        H159   1.109       .  S
C156        H160   1.110       .  S
C156        H161   1.109       .  S
C156        H162   1.111       .  S
C163        C164   1.404       .  A
C163        C168   1.405       .  A
C163        H170   1.084       .  S
C164        C165   1.416       .  A
C165        C166   1.401       .  A
C165        C172   1.507       .  S
C166        C167   1.402       .  A
C166        H509   1.084       .  S
C167        C168   1.415       .  A
C168        C169   1.507       .  S
C169        H173   1.111       .  S
C169        H174   1.111       .  S
C169        H175   1.109       .  S
H171        C504   1.084       .  S
C172        H176   1.110       .  S
C172        H177   1.106       .  S
C172        H516   1.111       .  S
H178        C510   1.111       .  S
C179        C180   1.402       .  A
C179        C184   1.403       .  A
C179        H186   1.084       .  S
C180        C181   1.413       .  A
C181        C182   1.405       .  A
C181        C188   1.507       .  S
C182        C183   1.404       .  A
C182        H187   1.084       .  S
C183        C184   1.413       .  A
C184        C185   1.507       .  S
C185        H189   1.111       .  S
C185        H190   1.110       .  S
C185        H191   1.107       .  S
C188        H192   1.109       .  S
C188        H193   1.110       .  S
C188        H194   1.111       .  S
C195        C196   1.410       .  A
C195        C200   1.400       .  A
C195        H202   1.083       .  S
C196        C197   1.426       .  A
C197        C198   1.406       .  A
C197        C204   1.508       .  S
C198        C199   1.398       .  A
C198        H203   1.084       .  S
C199        C200   1.407       .  A
C200        C201   1.507       .  S
C201        H205   1.111       .  S
C201        H206   1.107       .  S
C201        H207   1.110       .  S
C204        H208   1.110       .  S
C204        H209   1.110       .  S
C204        H210   1.111       .  S
C211        C212   1.403       .  A
C211        C216   1.402       .  A
C211        H218   1.084       .  S
C212        C213   1.415       .  A
C213        C214   1.407       .  A
C213        C220   1.507       .  S
C214        C215   1.407       .  A
C214        H219   1.084       .  S
C215        C216   1.421       .  A
C216        C217   1.510       .  S
C217        H221   1.111       .  S
C217        H222   1.109       .  S
C217        H223   1.111       .  S
C220        H224   1.107       .  S
C220        H225   1.110       .  S
C220        H226   1.111       .  S
C227        C228   1.408       .  A
C227        C232   1.400       .  A
C227        H234   1.084       .  S
C228        C229   1.421       .  A
C229        C230   1.407       .  A
C229        C236   1.508       .  S
C230        C231   1.403       .  A
C230        H235   1.084       .  S
C231        C232   1.412       .  A
C232        C233   1.509       .  S
C233        H237   1.111       .  S
C233        H238   1.107       .  S
C233        H239   1.110       .  S
C236        H240   1.109       .  S
C236        H241   1.111       .  S
C236        H242   1.111       .  S
C243        C244   1.405       .  A
C243        C248   1.405       .  A
C243        H250   1.084       .  S
C244        C245   1.417       .  A
C245        C246   1.402       .  A
C245        C590   1.509       .  S
C246        C247   1.401       .  A
C246        H251   1.084       .  S
C247        C248   1.413       .  A
C248        C249   1.507       .  S
C249        H253   1.111       .  S
C249        H254   1.110       .  S
C249        H255   1.109       .  S
C252        C583   1.509       .  S
C252        H256   1.111       .  S
C252        H257   1.110       .  S
C252        H258   1.111       .  S
C259        C260   1.399       .  A
C259        C264   1.401       .  A
C259        H266   1.084       .  S
C260        C261   1.412       .  A
C261        C262   1.406       .  A
C261        C268   1.507       .  S
C262        C263   1.407       .  A
C262        H267   1.084       .  S
C263        C264   1.420       .  A
C264        C265   1.509       .  S
C265        H269   1.111       .  S
C265        H270   1.111       .  S
C265        H271   1.110       .  S
C268        H272   1.110       .  S
C268        H273   1.109       .  S
C268        H274   1.111       .  S
C275        C276   1.406       .  A
C275        C280   1.406       .  A
C275        H282   1.084       .  S
C276        C277   1.420       .  A
C277        C278   1.401       .  A
C277        C284   1.510       .  S
C278        C279   1.399       .  A
C278        H283   1.084       .  S
C279        C280   1.413       .  A
C280        C281   1.507       .  S
C281        H285   1.111       .  S
C281        H286   1.110       .  S
C281        H287   1.109       .  S
C284        H288   1.111       .  S
C284        H289   1.109       .  S
C284        H290   1.111       .  S
C291        C292   1.405       .  A
C291        C296   1.404       .  A
C291        H298   1.084       .  S
C292        C293   1.419       .  A
C293        C294   1.403       .  A
C293        C300   1.509       .  S
C294        C295   1.401       .  A
C294        H299   1.084       .  S
C295        C296   1.413       .  A
C296        C297   1.506       .  S
C297        H301   1.111       .  S
C297        H302   1.110       .  S
C297        H303   1.108       .  S
C300        H305   1.110       .  S
C300        H306   1.111       .  S
C300        H642   1.111   1_554  S
H304        C638   1.111       .  S
C307        C308   1.406       .  A
C307        C312   1.403       .  A
C307        H314   1.084       .  S
C308        C309   1.419       .  A
C309        C310   1.405       .  A
C309        C316   1.509       .  S
C310        C311   1.401       .  A
C310        H315   1.084       .  S
C311        C312   1.411       .  A
C312        C313   1.507       .  S
C313        H317   1.111       .  S
C313        H318   1.110       .  S
C313        H319   1.109       .  S
C316        H320   1.110       .  S
C316        H321   1.109       .  S
C316        H322   1.111       .  S
C323        C324   1.402   1_545  A
C323        C328   1.404       .  A
C323        H330   1.084       .  S
C324        C325   1.412       .  A
C325        C326   1.403       .  A
C325        C332   1.506       .  S
C326        C327   1.402   1_565  A
C326        H331   1.084       .  S
C327        C328   1.413       .  A
C328        C329   1.507       .  S
C329        H333   1.111       .  S
C329        H334   1.110       .  S
C329        H335   1.109       .  S
C332        H336   1.108       .  S
C332        H337   1.110       .  S
C332        H338   1.111       .  S
C339        C340   1.403       .  A
C339        C344   1.402       .  A
C339        C633   1.481       .  S
C340        C341   1.402   1_565  A
C340        H345   1.084       .  S
C341        C342   1.401       .  A
C341        C649   1.478       .  S
C342        C343   1.403   1_545  A
C342        H346   1.084       .  S
C343        C344   1.403       .  A
C343        C662   1.476       .  S
C344        H347   1.084       .  S
C348        C349   1.402       .  A
C348        C353   1.401   1_565  A
C348        C598   1.479       .  S
C349        C350   1.403   1_565  A
C349        H354   1.084       .  S
C350        C351   1.403       .  A
C350        C665   1.476       .  S
C351        C352   1.402       .  A
C351        H355   1.083       .  S
C352        C353   1.401       .  A
C352        C617   1.479       .  S
C353        H356   1.085       .  S
Fe357       O368   1.954       .  S
Fe357       O370   2.069       .  S
Fe357       O362   2.049       .  S
Fe358       O368   1.960       .  S
Fe358       O369   2.063       .  S
Fe358       O374   2.070       .  S
Fe359       O368   1.964       .  S
Fe359       O364   2.064       .  S
Fe359       O360   2.082       .  S
O360        C367   1.272       .  A
O361        C375   1.267       .  A
O362        C367   1.266       .  A
O363        C366   1.269       .  A
O364        C376   1.270       .  A
O365        C378   1.270       .  A
C366        C646   1.485       .  S
C366        O371   1.270       .  A
C367        C614   1.483       .  S
O369        C372   1.269       .  A
O370        C372   1.272       .  A
C372        C566   1.492       .  S
O373        C378   1.266       .  A
O374        C376   1.269       .  A
C375        C534   1.496       .  S
C375        O377   1.273       .  A
C376        C553   1.490       .  S
C378        C582   1.481       .  S
C379        C380   1.400       .  A
C379        C384   1.399       .  A
C379        C537   1.474       .  S
C380        C381   1.402       .  A
C380        H385   1.083       .  S
C381        C382   1.405       .  A
C381        C502   1.483       .  S
C382        C383   1.405       .  A
C382        H386   1.084       .  S
C383        C384   1.403       .  A
C383        C518   1.479       .  S
C384        H387   1.084       .  S
C388        C389   1.405       .  A
C388        C393   1.405       .  A
C388        C550   1.489       .  S
C389        C390   1.406       .  A
C389        H394   1.082       .  S
C390        C391   1.403       .  A
C390        C521   1.481       .  S
C391        C392   1.401       .  A
C391        H395   1.083       .  S
C392        C393   1.402       .  A
C392        C486   1.481       .  S
C393        H396   1.084       .  S
Fe397       O408   1.964       .  S
Fe397       O410   2.068       .  S
Fe397       O402   2.054       .  S
Fe398       O408   1.970       .  S
Fe398       O409   2.062       .  S
Fe398       O414   2.069       .  S
Fe399       O408   1.969       .  S
Fe399       O404   2.060       .  S
Fe399       O400   2.076       .  S
O400        C407   1.272       .  A
O401        C415   1.270       .  A
O402        C407   1.267       .  A
O403        C406   1.269       .  A
O404        C416   1.267       .  A
O405        C418   1.269       .  A
C406        C630   1.484       .  S
C406        O411   1.267       .  A
C407        C601   1.485       .  S
O409        C412   1.268       .  A
O410        C412   1.271       .  A
C412        C454   1.496       .  S
O413        C418   1.269       .  A
O414        C416   1.269       .  A
C415        C505   1.478       .  S
C415        O417   1.270       .  A
C416        C489   1.483       .  S
C418        C470   1.487       .  S
C419        C420   1.401   1_455  A
C419        C424   1.401       .  A
C419        C473   1.478       .  S
C420        C421   1.402       .  A
C420        H425   1.084       .  S
C421        C422   1.403       .  A
C421        C585   1.480       .  S
C422        C423   1.404       .  A
C422        H426   1.084       .  S
C423        C424   1.404   1_655  A
C423        C438   1.480       .  S
C424        H427   1.084       .  S
C428        C429   1.401   1_455  A
C428        C433   1.401       .  A
C428        C457   1.478       .  S
C429        C430   1.402       .  A
C429        H434   1.084       .  S
C430        C431   1.403       .  A
C430        C569   1.482       .  S
C431        C432   1.405       .  A
C431        H435   1.083       .  S
C432        C433   1.404   1_655  A
C432        C441   1.480       .  S
C433        H436   1.084       .  S
C437        C438   1.403       .  A
C437        C442   1.404       .  A
C437        H444   1.084       .  S
C438        C439   1.413   1_655  A
C439        C440   1.403       .  A
C439        C446   1.508       .  S
C440        C441   1.403   1_455  A
C440        H445   1.084       .  S
C441        C442   1.414       .  A
C442        C443   1.507       .  S
C443        H447   1.111       .  S
C443        H448   1.108       .  S
C443        H449   1.110       .  S
C446        H450   1.110       .  S
C446        H451   1.109       .  S
C446        H452   1.111       .  S
C453        C454   1.411       .  A
C453        C458   1.401       .  A
C453        H460   1.083       .  S
C454        C455   1.423       .  A
C455        C456   1.406       .  A
C455        C462   1.508       .  S
C456        C457   1.400       .  A
C456        H461   1.084       .  S
C457        C458   1.409       .  A
C458        C459   1.508       .  S
C459        H463   1.111       .  S
C459        H464   1.108       .  S
C459        H465   1.110       .  S
C462        H466   1.110       .  S
C462        H467   1.110       .  S
C462        H468   1.111       .  S
C469        C470   1.407       .  A
C469        C474   1.402       .  A
C469        H476   1.084       .  S
C470        C471   1.420       .  A
C471        C472   1.406       .  A
C471        C478   1.508       .  S
C472        C473   1.401       .  A
C472        H477   1.084       .  S
C473        C474   1.410       .  A
C474        C475   1.507       .  S
C475        H479   1.111       .  S
C475        H480   1.111       .  S
C475        H481   1.109       .  S
C478        H482   1.110       .  S
C478        H483   1.109       .  S
C478        H484   1.111       .  S
C485        C486   1.401       .  A
C485        C490   1.402       .  A
C485        H492   1.084       .  S
C486        C487   1.412       .  A
C487        C488   1.406       .  A
C487        C494   1.507       .  S
C488        C489   1.406       .  A
C488        H493   1.084       .  S
C489        C490   1.418       .  A
C490        C491   1.509       .  S
C491        H495   1.111       .  S
C491        H496   1.111       .  S
C491        H497   1.109       .  S
C494        H498   1.110       .  S
C494        H499   1.109       .  S
C494        H500   1.111       .  S
C501        C502   1.404       .  A
C501        C506   1.405       .  A
C501        H508   1.084       .  S
C502        C503   1.416       .  A
C503        C504   1.401       .  A
C503        C510   1.507       .  S
C504        C505   1.402       .  A
C505        C506   1.415       .  A
C506        C507   1.507       .  S
C507        H511   1.111       .  S
C507        H512   1.111       .  S
C507        H513   1.109       .  S
C510        H514   1.110       .  S
C510        H515   1.106       .  S
C517        C518   1.402       .  A
C517        C522   1.403       .  A
C517        H524   1.084       .  S
C518        C519   1.413       .  A
C519        C520   1.405       .  A
C519        C526   1.507       .  S
C520        C521   1.404       .  A
C520        H525   1.084       .  S
C521        C522   1.413       .  A
C522        C523   1.507       .  S
C523        H527   1.111       .  S
C523        H528   1.110       .  S
C523        H529   1.107       .  S
C526        H530   1.109       .  S
C526        H531   1.110       .  S
C526        H532   1.111       .  S
C533        C534   1.410       .  A
C533        C538   1.400       .  A
C533        H540   1.083       .  S
C534        C535   1.426       .  A
C535        C536   1.406       .  A
C535        C542   1.508       .  S
C536        C537   1.398       .  A
C536        H541   1.084       .  S
C537        C538   1.407       .  A
C538        C539   1.507       .  S
C539        H543   1.111       .  S
C539        H544   1.107       .  S
C539        H545   1.110       .  S
C542        H546   1.110       .  S
C542        H547   1.110       .  S
C542        H548   1.111       .  S
C549        C550   1.403       .  A
C549        C554   1.402       .  A
C549        H556   1.084       .  S
C550        C551   1.415       .  A
C551        C552   1.407       .  A
C551        C558   1.507       .  S
C552        C553   1.407       .  A
C552        H557   1.084       .  S
C553        C554   1.421       .  A
C554        C555   1.510       .  S
C555        H559   1.111       .  S
C555        H560   1.109       .  S
C555        H561   1.111       .  S
C558        H562   1.107       .  S
C558        H563   1.110       .  S
C558        H564   1.111       .  S
C565        C566   1.408       .  A
C565        C570   1.400       .  A
C565        H572   1.084       .  S
C566        C567   1.421       .  A
C567        C568   1.407       .  A
C567        C574   1.508       .  S
C568        C569   1.403       .  A
C568        H573   1.084       .  S
C569        C570   1.412       .  A
C570        C571   1.509       .  S
C571        H575   1.111       .  S
C571        H576   1.107       .  S
C571        H577   1.110       .  S
C574        H578   1.109       .  S
C574        H579   1.111       .  S
C574        H580   1.111       .  S
C581        C582   1.405       .  A
C581        C586   1.405       .  A
C581        H588   1.084       .  S
C582        C583   1.417       .  A
C583        C584   1.402       .  A
C584        C585   1.401       .  A
C584        H589   1.084       .  S
C585        C586   1.413       .  A
C586        C587   1.507       .  S
C587        H591   1.111       .  S
C587        H592   1.110       .  S
C587        H593   1.109       .  S
C590        H594   1.111   1_554  S
C590        H595   1.110       .  S
C590        H596   1.111       .  S
C597        C598   1.399       .  A
C597        C602   1.401       .  A
C597        H604   1.084       .  S
C598        C599   1.412       .  A
C599        C600   1.406       .  A
C599        C606   1.507       .  S
C600        C601   1.407       .  A
C600        H605   1.084       .  S
C601        C602   1.420       .  A
C602        C603   1.509       .  S
C603        H607   1.111       .  S
C603        H608   1.111       .  S
C603        H609   1.110       .  S
C606        H610   1.110       .  S
C606        H611   1.109       .  S
C606        H612   1.111       .  S
C613        C614   1.406       .  A
C613        C618   1.406       .  A
C613        H620   1.084       .  S
C614        C615   1.420       .  A
C615        C616   1.401       .  A
C615        C622   1.510       .  S
C616        C617   1.399       .  A
C616        H621   1.084       .  S
C617        C618   1.413       .  A
C618        C619   1.507       .  S
C619        H623   1.111       .  S
C619        H624   1.110       .  S
C619        H625   1.109       .  S
C622        H626   1.111       .  S
C622        H627   1.109       .  S
C622        H628   1.111       .  S
C629        C630   1.405       .  A
C629        C634   1.404       .  A
C629        H636   1.084       .  S
C630        C631   1.419       .  A
C631        C632   1.403       .  A
C631        C638   1.509       .  S
C632        C633   1.401       .  A
C632        H637   1.084       .  S
C633        C634   1.413       .  A
C634        C635   1.506       .  S
C635        H639   1.111       .  S
C635        H640   1.110       .  S
C635        H641   1.108       .  S
C638        H643   1.110       .  S
C638        H644   1.111       .  S
C645        C646   1.406       .  A
C645        C650   1.403       .  A
C645        H652   1.084       .  S
C646        C647   1.419       .  A
C647        C648   1.405       .  A
C647        C654   1.509       .  S
C648        C649   1.401       .  A
C648        H653   1.084       .  S
C649        C650   1.411       .  A
C650        C651   1.507       .  S
C651        H655   1.111       .  S
C651        H656   1.110       .  S
C651        H657   1.109       .  S
C654        H658   1.110       .  S
C654        H659   1.109       .  S
C654        H660   1.111       .  S
C661        C662   1.402   1_545  A
C661        C666   1.404       .  A
C661        H668   1.084       .  S
C662        C663   1.412       .  A
C663        C664   1.403       .  A
C663        C670   1.506       .  S
C664        C665   1.402   1_565  A
C664        H669   1.084       .  S
C665        C666   1.413       .  A
C666        C667   1.507       .  S
C667        H671   1.111       .  S
C667        H672   1.110       .  S
C667        H673   1.109       .  S
C670        H674   1.108       .  S
C670        H675   1.110       .  S
C670        H676   1.111       .  S
