geometry optimzed in LAMMPS
_audit_creation_date              2020-12-01 
_audit_creation_method            'lammps2cif' 
_symmetry_space_group_name_H-M    'P1' 
_symmetry_Int_Tables_number       1 
_symmetry_cell_setting            triclinic 
loop_ 
_symmetry_equiv_pos_as_xyz 
  x,y,z 
_cell_length_a                    27.3518278 
_cell_length_b                    28.995071169494302 
_cell_length_c                    47.45666493900696 
_cell_angle_alpha                 90.63883785057814 
_cell_angle_beta                  90.46940681952545 
_cell_angle_gamma                 90.97765558860603 
loop_ 
_atom_site_label 
_atom_site_type_symbol 
_atom_site_fract_x 
_atom_site_fract_y 
_atom_site_fract_z 
_atom_site_charge 
N1          N  0.21269251  0.20201789  0.39380492    -0.02500
C2          C  0.21807427  0.15975670  0.40583903     0.00100
C3          C  0.17887651  0.15022196  0.42328372    -0.22800
C4          C  0.14955160  0.18782934  0.42281813    -0.23000
C5          C  0.17134066  0.21942275  0.40540070     0.00000
H6          H  0.17406591  0.12096553  0.43697377     0.13800
H7          H  0.11714708  0.19316016  0.43517449     0.13800
Zn8        Zn  0.48498784  0.44336680  0.42149051     1.49700
Zn9        Zn  0.04724073  0.46264981  0.47497231     1.49400
Zn10       Zn  0.49912921  0.04063511  0.43343233     1.49100
Zn11       Zn  0.44625589  0.49978347  0.47226365     1.49500
O12         O  0.50330418  0.48651540  0.45057782    -1.83200
O13         O  0.03978953  0.40133113  0.41598712    -0.73800
O14         O  0.08241581  0.02952049  0.48329031    -0.73600
O15         O  0.51497978  0.02586763  0.39222916    -0.73100
O16         O  0.07840678  0.40398001  0.45731464    -0.73800
O17         O  0.47967275  0.47552735  0.38356700    -0.73400
O18         O  0.05049942  0.08259814  0.45562371    -0.75800
O19         O  0.38364489  0.02717874  0.45468746    -0.73400
O20         O  0.03559720  0.46075587  0.01801561    -0.74100
O21         O  0.43388692  0.07257311  0.43024573    -0.73500
O22         O  0.47283233  0.50874698  0.01340116    -0.74000
O23         O  0.40263663  0.44362834  0.47306695    -0.73900
O24         O  0.42621433  0.40561999  0.43466696    -0.73700
C25         C  0.07250219  0.38647215  0.43252478     0.78100
C26         C  0.08044110  0.07103453  0.47516172     0.78600
C27         C  0.50809408  0.50736653  0.37432262     0.77500
C28         C  0.39085696  0.06094823  0.43794335     0.77900
C29         C  0.49918876  0.48276240  0.02877525     0.79100
C30         C  0.40007267  0.40853860  0.45681394     0.78100
N31         N  0.25272478  0.23583332  0.50640241    -0.02500
C32         C  0.23352516  0.19465087  0.49701661     0.00100
C33         C  0.25804819  0.17907101  0.47374218    -0.22800
C34         C  0.29150679  0.21225986  0.46718187    -0.23000
C35         C  0.28775263  0.24684063  0.48711456     0.00000
H36         H  0.25141691  0.14696573  0.46259314     0.13800
H37         H  0.31587201  0.21195441  0.44949575     0.13800
N38         N  0.00017935  0.50732500  0.15137514    -0.02500
C39         C  0.54493650  0.10417517  0.14952720     0.00100
C40         C  0.58803066  0.11864359  0.16241285    -0.22800
C41         C  0.02809952  0.50908618  0.19642389    -0.23000
C42         C  0.03280057  0.48940272  0.17009446     0.00000
H43         H  0.59511644  0.15131667  0.17282414     0.13800
H44         H  0.04849804  0.50102885  0.21533470     0.13800
Zn45       Zn  0.24382529  0.31435936  0.23152933     1.49700
Zn46       Zn  0.20950289  0.25309018  0.18185071     1.49400
Zn47       Zn  0.31622716  0.29292928  0.18132199     1.49100
Zn48       Zn  0.28491372  0.21467301  0.22507421     1.49500
O49         O  0.26502618  0.26893697  0.20491172    -1.83200
O50         O  0.18551744  0.34887251  0.21553507    -0.73800
O51         O  0.23049755  0.24071938  0.14219063    -0.73600
O52         O  0.34288816  0.35515506  0.19824306    -0.73100
O53         O  0.16489214  0.30629101  0.17796929    -0.73800
O54         O  0.29574296  0.36198242  0.23592053    -0.73400
O55         O  0.29125048  0.29310879  0.14024980    -0.74000
O56         O  0.34555259  0.18695200  0.20553702    -0.73400
O57         O  0.17211458  0.20274536  0.20109016    -0.74100
O58         O  0.37018011  0.24622513  0.17940952    -0.73500
O59         O  0.22773256  0.16909804  0.22800999    -0.74000
O60         O  0.29341387  0.23175058  0.26651912    -0.73900
O61         O  0.23634937  0.28574624  0.27017937    -0.73700
C62         C  0.16017202  0.34226213  0.19306728     0.78100
C63         C  0.26050617  0.26533012  0.12807570     0.78600
C64         C  0.33136472  0.37614293  0.22115195     0.77500
C65         C  0.37561496  0.20507618  0.18804616     0.77900
C66         C  0.18377038  0.17279900  0.21932496     0.79100
C67         C  0.26340824  0.25516957  0.28126845     0.78100
N68         N  0.94711566  0.56933557  0.26426886    -0.02500
C69         C  0.41292263  0.55306314  0.25398842     0.00100
C70         C  0.39009032  0.58577554  0.23807423    -0.22800
C71         C  0.99919847  0.06062459  0.21449897    -0.23000
C72         C  0.02000891  0.05979085  0.24085492     0.00000
H73         H  0.35652272  0.58114533  0.22625118     0.13800
H74         H  0.00621878  0.08615803  0.19899336     0.13800
C75         C  0.14403062  0.14455116  0.23183342    -0.04500
C76         C  0.09774871  0.16434643  0.23419221    -0.31900
C77         C  0.05715826  0.13796599  0.24203060     0.37300
C78         C  0.06213259  0.09070377  0.24750068    -0.04900
C79         C  0.10923420  0.07217488  0.24882623    -0.31800
C80         C  0.15030094  0.09888754  0.24100189     0.37200
H81         H  0.09235984  0.19995899  0.22838187     0.17600
O82         O  0.01167897  0.15714778  0.24074825    -0.59300
H83         H  0.11362738  0.03578962  0.25292003     0.17600
O84         O  0.19544047  0.07904302  0.24033356    -0.59400
H85         H  0.19664419  0.06231761  0.22201414     0.44600
H86         H  0.00863012  0.17508144  0.25853874     0.44600
C87         C  0.35799780  0.41859369  0.23133700    -0.04500
C88         C  0.34218766  0.44075184  0.25630782    -0.31900
C89         C  0.36253280  0.48309319  0.26528681     0.37300
C90         C  0.39971237  0.50394853  0.24959717    -0.04900
C91         C  0.41752732  0.48102729  0.22568609    -0.31800
C92         C  0.39699381  0.43884949  0.21639050     0.37200
H93         H  0.31256273  0.42616617  0.26852247     0.17600
O94         O  0.34384466  0.50507597  0.28845800    -0.59300
H95         H  0.44559751  0.49722630  0.21323030     0.17600
O96         O  0.41449660  0.41855639  0.19234363    -0.59400
H97         H  0.39986471  0.43587343  0.17655827     0.44600
H98         H  0.36723487  0.49894695  0.30399700     0.44600
C99         C  0.12761134  0.37873428  0.18300861    -0.04500
C100        C  0.14637553  0.42384606  0.18164137    -0.31900
C101        C  0.11682666  0.45997234  0.17299862     0.37300
C102        C  0.06739141  0.45150016  0.16589937    -0.04900
C103        C  0.04945231  0.40582999  0.16516299    -0.31800
C104        C  0.07946293  0.36934445  0.17343177     0.37200
H105        H  0.18393162  0.43131624  0.18785841     0.17600
O106        O  0.13558264  0.50418163  0.17319155    -0.59300
H107        H  0.01116814  0.39889973  0.16047183     0.17600
O108        O  0.06066502  0.32517929  0.17359676    -0.59400
H109        H  0.04252654  0.32266102  0.19154247     0.44600
H110        H  0.14066516  0.51238661  0.19335601     0.44600
C111        C  0.49828958  0.12977138  0.15374392    -0.04500
C112        C  0.45577494  0.10598175  0.16234574    -0.31900
C113        C  0.41612361  0.12964332  0.17415059     0.37300
C114        C  0.41739934  0.17825813  0.17647159    -0.04900
C115        C  0.45820606  0.20209641  0.16559389    -0.31800
C116        C  0.49836085  0.17847092  0.15460847     0.37200
H117        H  0.45430379  0.06864711  0.16148526     0.17600
O118        O  0.37598004  0.10486417  0.18286105    -0.59300
H119        H  0.45965142  0.23946473  0.16613943     0.17600
O120        O  0.53739329  0.20333396  0.14434806    -0.59400
H121        H  0.55168492  0.22040158  0.16077096     0.44600
H122        H  0.38484152  0.09344962  0.20182106     0.44600
C123        C  0.26235759  0.24261176  0.03797392    -0.04500
C124        C  0.21771696  0.24495007  0.05229316    -0.31900
C125        C  0.21647832  0.25324471  0.08149843     0.37300
C126        C  0.26034300  0.26038167  0.09693372    -0.04900
C127        C  0.30483813  0.25949432  0.08259067    -0.31800
C128        C  0.30623730  0.24947751  0.05367964     0.37200
H129        H  0.18367454  0.23947009  0.04094130     0.17600
O130        O  0.17216956  0.25367921  0.09481321    -0.59300
H131        H  0.33896547  0.26385123  0.09416109     0.17600
O132        O  0.35097665  0.24359827  0.04148418    -0.59400
H133        H  0.35682088  0.20997520  0.04216843     0.44600
H134        H  0.16205638  0.28636013  0.09463630     0.44600
C135        C  0.37033704  0.36819929  0.46558562    -0.04500
C136        C  0.32459173  0.37327835  0.47862184    -0.31900
C137        C  0.29787668  0.33437632  0.48793967     0.37300
C138        C  0.31757840  0.29001827  0.48478463    -0.04900
C139        C  0.36488534  0.28595159  0.47381127    -0.31800
C140        C  0.39058087  0.32407138  0.46374103     0.37200
H141        H  0.30905965  0.40722732  0.48090054     0.17600
O142        O  0.25168976  0.33985259  0.49832801    -0.59300
H143        H  0.38151526  0.25241121  0.47193379     0.17600
O144        O  0.43646324  0.31794210  0.45298171    -0.59400
H145        H  0.43099021  0.30687848  0.43333349     0.44600
H146        H  0.25652812  0.34937583  0.51830790     0.44600
C147        C  0.11442206  0.10557686  0.48890392    -0.04500
C148        C  0.10652197  0.15309579  0.48641231    -0.31900
C149        C  0.14292597  0.18554470  0.49469141     0.37300
C150        C  0.18799505  0.17044531  0.50555479    -0.04900
C151        C  0.19236555  0.12378411  0.51226917    -0.31800
C152        C  0.15632036  0.09142792  0.50406277     0.37200
H153        H  0.07354546  0.16506558  0.47626399     0.17600
O154        O  0.13701090  0.23108134  0.48817183    -0.59300
H155        H  0.23700325  0.10410256  0.02156901     0.17600
O156        O  0.17416406  0.03858779  0.01068355    -0.59400
H157        H  0.16104635  0.03364177  0.02985929     0.44600
H158        H  0.11132571  0.24230980  0.50105250     0.44600
C159        C  0.97080349  0.55322871  0.28981625    -0.04500
C160        C  0.97436155  0.50569486  0.29519926    -0.31900
C161        C  0.98698329  0.48970552  0.32206258     0.37300
C162        C  0.50376633  0.52207546  0.34455386    -0.04900
C163        C  0.49587696  0.04118125  0.33251372    -0.31800
C164        C  0.49796612  0.04578639  0.30318877     0.37200
H165        H  0.96589515  0.48049870  0.27899385     0.17600
O166        O  0.98676692  0.44315757  0.32689485    -0.59300
H167        H  0.48754073  0.07110450  0.34537038     0.17600
O168        O  0.48755873  0.08764658  0.29169526    -0.59400
H169        H  0.45260927  0.08537813  0.28601634     0.44600
H170        H  0.01999933  0.43293525  0.32182275     0.44600
C171        C  0.49166986  0.50250662  0.11944067    -0.04500
C172        C  0.53018232  0.07220762  0.09113154    -0.31900
C173        C  0.51771151  0.05637895  0.06411954     0.37300
C174        C  0.49726792  0.48888261  0.05999062    -0.04900
C175        C  0.95759102  0.48885220  0.07591409    -0.31800
C176        C  0.95638841  0.49356040  0.10546547     0.37200
H177        H  0.54403252  0.10724490  0.09362147     0.17600
O178        O  0.52325964  0.08560154  0.04177419    -0.59300
H179        H  0.92355163  0.48365376  0.06438505     0.17600
O180        O  0.91240555  0.48984124  0.11889293    -0.59400
H181        H  0.91018520  0.45739946  0.12522793     0.44600
H182        H  0.49200227  0.10230867  0.04046306     0.44600
C183        C  0.23238233  0.21573324  0.36675939    -0.04500
C184        C  0.23955921  0.26268544  0.36029988    -0.31900
C185        C  0.25064415  0.27651214  0.33269134     0.37300
C186        C  0.25676312  0.24314287  0.31125407    -0.04900
C187        C  0.25181428  0.19644918  0.31791977    -0.31800
C188        C  0.23871276  0.18260758  0.34498287     0.37200
H189        H  0.23526008  0.28886694  0.37645059     0.17600
O190        O  0.25431523  0.32261576  0.32676621    -0.59300
H191        H  0.25486688  0.17038190  0.30149906     0.17600
O192        O  0.22725632  0.13692899  0.34902663    -0.59400
H193        H  0.25854952  0.12038367  0.34726932     0.44600
H194        H  0.28866259  0.33152012  0.33131992     0.44600
C195        C  0.34813719  0.08580708  0.42614837    -0.04500
C196        C  0.30312485  0.06224813  0.42304178    -0.31900
C197        C  0.26166520  0.08463616  0.41296699     0.37300
C198        C  0.26386991  0.13214359  0.40669806    -0.04900
C199        C  0.30991098  0.15436569  0.40671336    -0.31800
C200        C  0.35171695  0.13185119  0.41672336     0.37200
H201        H  0.29988945  0.02619087  0.42860585     0.17600
O202        O  0.21867909  0.05990232  0.41017839    -0.59300
H203        H  0.31294833  0.19045599  0.40124915     0.17600
O204        O  0.39521013  0.15600802  0.41849970    -0.59400
H205        H  0.39597585  0.16984415  0.43771754     0.44600
H206        H  0.21493132  0.05367621  0.38967063     0.44600
C207        C  0.10271320  0.34730189  0.42235759    -0.04500
C208        C  0.14716436  0.33703701  0.43568858    -0.31900
C209        C  0.17346657  0.29781502  0.42769705     0.37300
C210        C  0.15558746  0.26800391  0.40618455    -0.04900
C211        C  0.11286412  0.27955390  0.39178279    -0.31800
C212        C  0.08664844  0.31877544  0.39946567     0.37200
H213        H  0.16083750  0.35853022  0.45293663     0.17600
O214        O  0.21519299  0.28720867  0.44219920    -0.59300
H215        H  0.09792142  0.25633193  0.37573571     0.17600
O216        O  0.04388571  0.32729211  0.38529745    -0.59400
H217        H  0.01823009  0.30975878  0.39550000     0.44600
H218        H  0.20378794  0.27626827  0.46066490     0.44600
N219        N  0.21948143  0.19912352  0.89317477    -0.02500
C220        C  0.22570978  0.15697874  0.90515884     0.00100
C221        C  0.18644474  0.14641105  0.92235385    -0.22800
C222        C  0.15607741  0.18321244  0.92169003    -0.23000
C223        C  0.17758269  0.21547784  0.90461699     0.00000
H224        H  0.18222692  0.11722347  0.93614901     0.13800
H225        H  0.12357512  0.18786661  0.93408264     0.13800
Zn226      Zn  0.49291463  0.43667152  0.92352885     1.49700
Zn227      Zn  0.06090291  0.46264686  0.97705391     1.49400
Zn228      Zn  0.50883942  0.04357198  0.93508192     1.49100
Zn229      Zn  0.45276159  0.49649419  0.97257180     1.49500
O230        O  0.51058820  0.48134801  0.95176399    -1.83200
O231        O  0.04851040  0.39723608  0.92035093    -0.73800
O232        O  0.09117136  0.02215690  0.98560250    -0.73600
O233        O  0.52159444  0.02790388  0.89348470    -0.73100
O234        O  0.09211247  0.40291432  0.95990634    -0.73800
O235        O  0.48443360  0.46774619  0.88555622    -0.73400
O236        O  0.05806180  0.07526766  0.95839433    -0.75800
O237        O  0.39423867  0.03207356  0.95646889    -0.73400
O238        O  0.01569563  0.45676164  0.51430515    -0.74100
O239        O  0.44435548  0.07745139  0.93208650    -0.73500
O240        O  0.46636446  0.50966240  0.51333597    -0.74000
O241        O  0.40925686  0.44009582  0.97463057    -0.73900
O242        O  0.43564383  0.39880935  0.93814960    -0.73700
C243        C  0.08325584  0.38357467  0.93585636     0.78100
C244        C  0.08930736  0.06360267  0.97719871     0.78600
C245        C  0.51037110  0.50074107  0.87552281     0.77500
C246        C  0.40129054  0.06540927  0.93949548     0.77900
C247        C  0.49324248  0.48286448  0.52784797     0.79100
C248        C  0.40852047  0.40332884  0.95976949     0.78100
N249        N  0.26356584  0.22829601  0.00861083    -0.02500
C250        C  0.24492652  0.18753071  0.99819906     0.00100
C251        C  0.26885018  0.17448677  0.97412749    -0.22800
C252        C  0.30168023  0.20871903  0.96831508    -0.23000
C253        C  0.29778901  0.24138896  0.98936896     0.00000
H254        H  0.26171415  0.14364431  0.96182204     0.13800
H255        H  0.32547429  0.21061892  0.95036404     0.13800
N256        N  0.98329993  0.49542109  0.64758493    -0.02500
C257        C  0.53099814  0.08933659  0.64941794     0.00100
C258        C  0.57367783  0.10373283  0.66273300    -0.22800
C259        C  0.00720937  0.48706712  0.69300861    -0.23000
C260        C  0.01154893  0.47085086  0.66583921     0.00000
H261        H  0.58136406  0.13708334  0.67205301     0.13800
H262        H  0.02575517  0.47455873  0.71159025     0.13800
Zn263      Zn  0.23593342  0.30958623  0.72899539     1.49700
Zn264      Zn  0.20215443  0.24808306  0.67892423     1.49400
Zn265      Zn  0.30906628  0.28584070  0.67932277     1.49100
Zn266      Zn  0.27551294  0.20875201  0.72233337     1.49500
O267        O  0.25680595  0.26352962  0.70250555    -1.83200
O268        O  0.17660053  0.34453695  0.71295070    -0.73800
O269        O  0.22345713  0.23799928  0.63919781    -0.73600
O270        O  0.33944016  0.34516034  0.69717840    -0.73100
O271        O  0.15787192  0.30094889  0.67546922    -0.73800
O272        O  0.28935145  0.35595797  0.73321186    -0.73400
O273        O  0.28358130  0.29119271  0.63893870    -0.74000
O274        O  0.33373710  0.17812998  0.70223326    -0.73400
O275        O  0.16323143  0.19800420  0.69750632    -0.74100
O276        O  0.35989316  0.23650481  0.67591568    -0.73500
O277        O  0.21700193  0.16564365  0.72621004    -0.74000
O278        O  0.28676824  0.22608542  0.76332486    -0.73900
O279        O  0.23042989  0.28067640  0.76803427    -0.73700
C280        C  0.15160729  0.33676909  0.69041811     0.78100
C281        C  0.25279190  0.26459546  0.62595534     0.78600
C282        C  0.32732482  0.36731866  0.71950991     0.77500
C283        C  0.36386261  0.19514432  0.68441937     0.77900
C284        C  0.17359336  0.16929034  0.71672134     0.79100
C285        C  0.25810471  0.25000151  0.77864309     0.78100
N286        N  0.94454730  0.55202713  0.76515452    -0.02500
C287        C  0.41095481  0.54170389  0.75409862     0.00100
C288        C  0.38823815  0.57425380  0.73794831    -0.22800
C289        C  0.97946784  0.06476054  0.72047265    -0.23000
C290        C  0.00657429  0.06303872  0.74501971     0.00000
H291        H  0.35518263  0.56920040  0.72567564     0.13800
H292        H  0.98091047  0.09160910  0.70508150     0.13800
C293        C  0.13303420  0.14299866  0.72975695    -0.04500
C294        C  0.08753609  0.16435806  0.73185599    -0.31900
C295        C  0.04660259  0.14009722  0.74131418     0.37300
C296        C  0.05034604  0.09323719  0.74839763    -0.04900
C297        C  0.09678247  0.07338596  0.74963655    -0.31800
C298        C  0.13828672  0.09821224  0.74056793     0.37200
H299        H  0.08310741  0.19955143  0.72492346     0.17600
O300        O  0.00195061  0.16094284  0.74049138    -0.59300
H301        H  0.10025294  0.03734996  0.75497683     0.17600
O302        O  0.18291575  0.07737155  0.74061277    -0.59400
H303        H  0.18372529  0.05904107  0.72286528     0.44600
H304        H  0.99664770  0.17252340  0.75993670     0.44600
C305        C  0.35624387  0.40792205  0.73018728    -0.04500
C306        C  0.34556187  0.42654326  0.75706953    -0.31900
C307        C  0.36645295  0.46851619  0.76637276     0.37300
C308        C  0.39903081  0.49241202  0.74900271    -0.04900
C309        C  0.41225753  0.47255461  0.72309513    -0.31800
C310        C  0.39130528  0.43075524  0.71357344     0.37200
H311        H  0.31922466  0.40957646  0.77056157     0.17600
O312        O  0.35209053  0.48748336  0.79150584    -0.59300
H313        H  0.43639876  0.49114780  0.70928153     0.17600
O314        O  0.40363321  0.41392330  0.68749507    -0.59400
H315        H  0.38368495  0.43141694  0.67386945     0.44600
H316        H  0.37455814  0.47473521  0.80582875     0.44600
C317        C  0.11508661  0.36980735  0.68044978    -0.04500
C318        C  0.13035576  0.41231497  0.66939612    -0.31900
C319        C  0.09597785  0.44376502  0.65935187     0.37300
C320        C  0.04564056  0.43301130  0.66044421    -0.04900
C321        C  0.03093306  0.38900425  0.66961630    -0.31800
C322        C  0.06519892  0.35741345  0.67933123     0.37200
H323        H  0.16890471  0.42153090  0.66910491     0.17600
O324        O  0.11154430  0.48640699  0.65053798    -0.59300
H325        H  0.99238765  0.38062983  0.67160978     0.17600
O326        O  0.04936304  0.31537492  0.68901657    -0.59400
H327        H  0.04287391  0.32037052  0.70934814     0.44600
H328        H  0.11654644  0.50498150  0.66801601     0.44600
C329        C  0.48481882  0.11630745  0.65159533    -0.04500
C330        C  0.44060515  0.09383066  0.65862027    -0.31900
C331        C  0.40124604  0.11860255  0.66985527     0.37300
C332        C  0.40444933  0.16708421  0.67269844    -0.04900
C333        C  0.44655480  0.18976819  0.66262661    -0.31800
C334        C  0.48648679  0.16500103  0.65243500     0.37200
H335        H  0.43775961  0.05654881  0.65745885     0.17600
O336        O  0.35972013  0.09507049  0.67769789    -0.59300
H337        H  0.44934748  0.22708208  0.66343490     0.17600
O338        O  0.52693446  0.18873494  0.64300057    -0.59400
H339        H  0.54010972  0.20627869  0.65954290     0.44600
H340        H  0.36720786  0.08277325  0.69663976     0.44600
C341        C  0.25244604  0.25063685  0.53563043    -0.04500
C342        C  0.20811025  0.25357773  0.55022546    -0.31900
C343        C  0.20757485  0.25935762  0.57959093     0.37300
C344        C  0.25189582  0.26347280  0.59485084    -0.04900
C345        C  0.29609184  0.26328114  0.58024689    -0.31800
C346        C  0.29676215  0.25573079  0.55111416     0.37200
H347        H  0.17376244  0.24983948  0.53900077     0.17600
O348        O  0.16354699  0.25979335  0.59322677    -0.59300
H349        H  0.33048288  0.26585030  0.59171455     0.17600
O350        O  0.34114577  0.25008250  0.53845506    -0.59400
H351        H  0.34642253  0.21633269  0.53818562     0.44600
H352        H  0.15689698  0.29284762  0.59685779     0.44600
C353        C  0.37968213  0.36311718  0.96952533    -0.04500
C354        C  0.33169124  0.36755313  0.97959462    -0.31900
C355        C  0.30503310  0.32854789  0.98872047     0.37300
C356        C  0.32689126  0.28490915  0.98828884    -0.04900
C357        C  0.37598600  0.28157432  0.98028692    -0.31800
C358        C  0.40206647  0.31987303  0.97071415     0.37200
H359        H  0.31434419  0.40085807  0.97939261     0.17600
O360        O  0.25679888  0.33283038  0.99575436    -0.59300
H361        H  0.39358762  0.24835110  0.98011860     0.17600
O362        O  0.44997770  0.31484327  0.96306470    -0.59400
H363        H  0.44864832  0.30187341  0.94364157     0.44600
H364        H  0.25708459  0.34094584  0.01610365     0.44600
C365        C  0.12461445  0.09821463  0.98981910    -0.04500
C366        C  0.11791652  0.14572252  0.98606353    -0.31900
C367        C  0.15481794  0.17800123  0.99380789     0.37300
C368        C  0.19910299  0.16294755  0.00566347    -0.04900
C369        C  0.20294356  0.11644108  0.01286252    -0.31800
C370        C  0.16631768  0.08422050  0.00522417     0.37200
H371        H  0.08534702  0.15769325  0.97549438     0.17600
O372        O  0.15029876  0.22311971  0.98591814    -0.59300
H373        H  0.22675649  0.11145661  0.52054022     0.17600
O374        O  0.16520330  0.04564548  0.50843136    -0.59400
H375        H  0.15218204  0.03919851  0.52745667     0.44600
H376        H  0.12681739  0.23664894  0.99935721     0.44600
C377        C  0.97102688  0.53815171  0.79045331    -0.04500
C378        C  0.97302374  0.49137193  0.79806892    -0.31900
C379        C  0.98830628  0.47824078  0.82511975     0.37300
C380        C  0.50291782  0.51468509  0.84577378    -0.04900
C381        C  0.49479094  0.04260375  0.83447027    -0.31800
C382        C  0.49020526  0.04598703  0.80512558     0.37200
H383        H  0.96110425  0.46460194  0.78357300     0.17600
O384        O  0.98682395  0.43242752  0.83199709    -0.59300
H385        H  0.49150221  0.07345387  0.84736830     0.17600
O386        O  0.48032728  0.08809892  0.79377881    -0.59400
H387        H  0.44443654  0.08792469  0.79059647     0.44600
H388        H  0.01980632  0.42086162  0.82750896     0.44600
C389        C  0.48738193  0.49650765  0.61899365    -0.04500
C390        C  0.52431683  0.05821273  0.59102364    -0.31900
C391        C  0.51234234  0.04421285  0.56359659     0.37300
C392        C  0.49191829  0.48672753  0.55920670    -0.04900
C393        C  0.97827135  0.44770520  0.57295835    -0.31800
C394        C  0.97660116  0.44964136  0.60264749     0.37200
H395        H  0.54109294  0.09199244  0.59421918     0.17600
O396        O  0.52240279  0.07337755  0.54173166    -0.59300
H397        H  0.97478454  0.41456241  0.56228785     0.17600
O398        O  0.96725117  0.41003092  0.61733411    -0.59400
H399        H  0.99408283  0.38878559  0.61257998     0.44600
H400        H  0.49312175  0.09285411  0.53989271     0.44600
C401        C  0.23689455  0.21210727  0.86548097    -0.04500
C402        C  0.24377964  0.25889122  0.85850150    -0.31900
C403        C  0.25179832  0.27219487  0.83042945     0.37300
C404        C  0.25417847  0.23847976  0.80889102    -0.04900
C405        C  0.24969163  0.19191287  0.81600383    -0.31800
C406        C  0.24047999  0.17856775  0.84369160     0.37200
H407        H  0.24157441  0.28530397  0.87469482     0.17600
O408        O  0.25646779  0.31813563  0.82425384    -0.59300
H409        H  0.25051240  0.16555144  0.79963714     0.17600
O410        O  0.23036002  0.13287517  0.84858424    -0.59400
H411        H  0.26205378  0.11704973  0.84671711     0.44600
H412        H  0.29221225  0.32437048  0.82354750     0.44600
C413        C  0.35814825  0.08852563  0.92699051    -0.04500
C414        C  0.31393333  0.06349147  0.92442819    -0.31900
C415        C  0.27184846  0.08379483  0.91368384     0.37300
C416        C  0.27241074  0.13089189  0.90638079    -0.04900
C417        C  0.31768474  0.15457625  0.90601161    -0.31800
C418        C  0.36033293  0.13386833  0.91637480     0.37200
H419        H  0.31178853  0.02780394  0.93091332     0.17600
O420        O  0.22978419  0.05754207  0.91147283    -0.59300
H421        H  0.31943431  0.19046266  0.89995892     0.17600
O422        O  0.40320671  0.15910074  0.91725505    -0.59400
H423        H  0.40452844  0.17344568  0.93632493     0.44600
H424        H  0.22770674  0.04786741  0.89138500     0.44600
C425        C  0.11204748  0.34363906  0.92513667    -0.04500
C426        C  0.15703804  0.33207499  0.93749555    -0.31900
C427        C  0.18224116  0.29278542  0.92836034     0.37300
C428        C  0.16252899  0.26410088  0.90675778    -0.04900
C429        C  0.11906191  0.27659923  0.89356335    -0.31800
C430        C  0.09390874  0.31573299  0.90238986     0.37200
H431        H  0.17203482  0.35268154  0.95477999     0.17600
O432        O  0.22392574  0.28036721  0.94234882    -0.59300
H433        H  0.10270917  0.25409817  0.87757279     0.17600
O434        O  0.05015973  0.32477404  0.88940534    -0.59400
H435        H  0.02522655  0.30714939  0.90011398     0.44600
H436        H  0.25120253  0.29381312  0.93132893     0.44600
N437        N  0.26206642  0.74826405  0.39694087    -0.02500
C438        C  0.28296624  0.71604648  0.41373429     0.00100
C439        C  0.27466497  0.72591152  0.44151545    -0.22800
C440        C  0.24892169  0.76540218  0.44273781    -0.23000
C441        C  0.24182659  0.77889597  0.41539001     0.00000
H442        H  0.28554072  0.70538653  0.45891620     0.13800
H443        H  0.23426270  0.78141204  0.46145757     0.13800
Zn444      Zn  0.48354426  0.93370694  0.42536027     1.49700
Zn445      Zn  0.04501660  0.97103787  0.47665884     1.49400
Zn446      Zn  0.52539301  0.54201676  0.43222127     1.49100
Zn447      Zn  0.43135859  0.98396131  0.47432351     1.49500
O448        O  0.48965228  0.98281838  0.45247025    -1.83200
O449        O  0.05006278  0.90316921  0.42056051    -0.73800
O450        O  0.10055847  0.51058916  0.48051925    -0.73600
O451        O  0.53774384  0.52938263  0.39078682    -0.73100
O452        O  0.09201492  0.92421624  0.45896797    -0.73800
O453        O  0.47422254  0.95886459  0.38612300    -0.73400
O454        O  0.08346979  0.56878787  0.45199695    -0.75800
O455        O  0.40991113  0.55159495  0.45294363    -0.73400
O456        O  0.02489651  0.95815114  0.02145041    -0.74100
O457        O  0.46906275  0.58586915  0.42862691    -0.73500
O458        O  0.46349412  0.01322462  0.01513994    -0.74000
O459        O  0.40420942  0.91866834  0.47722424    -0.73900
O460        O  0.43764010  0.88381536  0.44022536    -0.73700
C461        C  0.08847472  0.90172458  0.43563536     0.78100
C462        C  0.11026195  0.55068046  0.47107215     0.78600
C463        C  0.49686562  0.99399295  0.37613015     0.77500
C464        C  0.42437474  0.58263885  0.43582477     0.77900
C465        C  0.49517168  0.99330253  0.03051061     0.79100
C466        C  0.41156803  0.88247237  0.46244747     0.78100
N467        N  0.29765298  0.69245553  0.51468630    -0.02500
C468        C  0.28695304  0.64797912  0.50668802     0.00100
C469        C  0.32533467  0.62973003  0.49190233    -0.22800
C470        C  0.35907202  0.66446324  0.48859121    -0.23000
C471        C  0.34075337  0.70348465  0.50167270     0.00000
H472        H  0.32604885  0.59623407  0.48168472     0.13800
H473        H  0.39076458  0.66213041  0.47529257     0.13800
N474        N  0.04322854  0.05914054  0.14204907    -0.02500
C475        C  0.47769498  0.55080170  0.16210722     0.00100
C476        C  0.50329664  0.55984252  0.18657096    -0.22800
C477        C  0.10881145  0.08071204  0.16834753    -0.23000
C478        C  0.08542279  0.04453956  0.15444303     0.00000
H479        H  0.49807904  0.58870006  0.20049013     0.13800
H480        H  0.14108997  0.07871352  0.18153342     0.13800
Zn481      Zn  0.23151886  0.81750992  0.22634603     1.49700
Zn482      Zn  0.18181457  0.76729754  0.17550609     1.49400
Zn483      Zn  0.29373445  0.77700095  0.17695114     1.49100
Zn484      Zn  0.24277227  0.70925633  0.21900879     1.49500
O485        O  0.23783414  0.76740163  0.19991308    -1.83200
O486        O  0.18235869  0.86524449  0.21206451    -0.73800
O487        O  0.20420010  0.74775380  0.13645568    -0.73600
O488        O  0.34100668  0.82329144  0.19528983    -0.73100
O489        O  0.15734512  0.83228643  0.17183476    -0.73800
O490        O  0.29584829  0.85030812  0.23020152    -0.73400
O491        O  0.27118795  0.79243632  0.13796572    -0.74000
O492        O  0.29204854  0.66607064  0.19842734    -0.73400
O493        O  0.12983147  0.72657248  0.19406995    -0.74100
O494        O  0.32877739  0.71772430  0.17125015    -0.73500
O495        O  0.17485739  0.68121437  0.22124836    -0.74000
O496        O  0.25935764  0.72410660  0.26032331    -0.73900
O497        O  0.22271792  0.79210423  0.26546639    -0.73700
C498        C  0.15929204  0.86701405  0.18851103     0.78100
C499        C  0.24118763  0.76614727  0.12432703     0.78600
C500        C  0.33611815  0.84893608  0.21709126     0.77500
C501        C  0.32426258  0.67653838  0.17994796     0.77900
C502        C  0.13340275  0.69417152  0.21204850     0.79100
C503        C  0.24357240  0.75694154  0.27594753     0.78100
N504        N  0.00417455  0.02210474  0.25516030    -0.02500
C505        C  0.48345193  0.98290732  0.23660187     0.00100
C506        C  0.48546495  0.00041006  0.20979737    -0.22800
C507        C  0.91074593  0.62620666  0.24036377    -0.23000
C508        C  0.95344443  0.61246135  0.25339431     0.00000
H509        H  0.46896200  0.98582322  0.19082329     0.13800
H510        H  0.90521492  0.65679998  0.22805505     0.13800
C511        C  0.08841362  0.67311857  0.22407020    -0.04500
C512        C  0.04758628  0.70077215  0.22869535    -0.31900
C513        C  0.00517267  0.68266815  0.24101731     0.37300
C514        C  0.00185234  0.63534143  0.24780589    -0.04900
C515        C  0.04391335  0.60851741  0.24494028    -0.31800
C516        C  0.08682364  0.62700675  0.23325518     0.37200
H517        H  0.04883108  0.73694262  0.22318651     0.17600
O518        O  0.96713052  0.71172278  0.24614100    -0.59300
H519        H  0.04287803  0.57231903  0.25026548     0.17600
O520        O  0.12642099  0.59913757  0.23005984    -0.59400
H521        H  0.12517467  0.58888535  0.21007091     0.44600
H522        H  0.96854249  0.71824194  0.26669928     0.44600
C523        C  0.37736208  0.87837057  0.22757731    -0.04500
C524        C  0.36760484  0.91697902  0.24479213    -0.31900
C525        C  0.40465578  0.94893117  0.25197731     0.37300
C526        C  0.45226218  0.94236001  0.24212182    -0.04900
C527        C  0.46319785  0.90137980  0.22764843    -0.31800
C528        C  0.42616597  0.86954150  0.22020677     0.37200
H529        H  0.33053093  0.92420447  0.25113564     0.17600
O530        O  0.39267984  0.98929652  0.26536061    -0.59300
H531        H  0.49978106  0.89625604  0.21969563     0.17600
O532        O  0.43791281  0.83070102  0.20510863    -0.59400
H533        H  0.44124980  0.84095304  0.18533654     0.44600
H534        H  0.39814778  0.98350504  0.28568626     0.44600
C535        C  0.13591522  0.91063498  0.17953185    -0.04500
C536        C  0.13470078  0.92228590  0.15071568    -0.31900
C537        C  0.11679638  0.96504007  0.14179617     0.37300
C538        C  0.09749851  0.99609635  0.16157847    -0.04900
C539        C  0.09723685  0.98364962  0.19015061    -0.31800
C540        C  0.11687468  0.94200062  0.19925213     0.37200
H541        H  0.14986282  0.89907970  0.13515208     0.17600
O542        O  0.11997241  0.97668191  0.11394218    -0.59300
H543        H  0.08344456  0.00735703  0.20574221     0.17600
O544        O  0.11695263  0.93224623  0.22747174    -0.59400
H545        H  0.14541793  0.94969186  0.23550370     0.44600
H546        H  0.15153353  0.99376276  0.11229152     0.44600
C547        C  0.43482736  0.57939676  0.15500635    -0.04500
C548        C  0.38758089  0.56294919  0.16156325    -0.31900
C549        C  0.34975897  0.59385796  0.16830877     0.37300
C550        C  0.35937671  0.64187335  0.16877244    -0.04900
C551        C  0.40499810  0.65784693  0.15898652    -0.31800
C552        C  0.44240311  0.62727565  0.15244281     0.37200
H553        H  0.38112420  0.52622222  0.16388890     0.17600
O554        O  0.30372276  0.57717309  0.17434013    -0.59300
H555        H  0.41318902  0.69450341  0.15827413     0.17600
O556        O  0.48782955  0.64466487  0.14583258    -0.59400
H557        H  0.50239820  0.65572208  0.16394848     0.44600
H558        H  0.30770219  0.55422115  0.18948400     0.44600
C559        C  0.28282590  0.72128113  0.04131561    -0.04500
C560        C  0.23288491  0.72475689  0.04781164    -0.31900
C561        C  0.21806489  0.74044080  0.07451623     0.37300
C562        C  0.25344047  0.75354984  0.09497638    -0.04900
C563        C  0.30308447  0.75083142  0.08820769    -0.31800
C564        C  0.31786153  0.73396275  0.06215589     0.37200
H565        H  0.20534091  0.71501154  0.03230952     0.17600
O566        O  0.16915630  0.74236614  0.08042797    -0.59300
H567        H  0.33101158  0.75948514  0.10381624     0.17600
O568        O  0.36689400  0.72812755  0.05784573    -0.59400
H569        H  0.37305120  0.69552920  0.06263055     0.44600
H570        H  0.15970787  0.77437343  0.07600213     0.44600
C571        C  0.39282805  0.83730616  0.47265148    -0.04500
C572        C  0.34756241  0.83376088  0.48619221    -0.31900
C573        C  0.33018048  0.79130547  0.49663407     0.37300
C574        C  0.35935542  0.75140959  0.49479508    -0.04900
C575        C  0.40625677  0.75643165  0.48292539    -0.31800
C576        C  0.42236008  0.79811319  0.47134087     0.37200
H577        H  0.32504104  0.86393546  0.48824123     0.17600
O578        O  0.28364692  0.78909518  0.50704377    -0.59300
H579        H  0.43094052  0.72774014  0.48207923     0.17600
O580        O  0.46829496  0.80067191  0.45998869    -0.59400
H581        H  0.46452926  0.78825264  0.44051394     0.44600
H582        H  0.28432545  0.80832351  0.52446740     0.44600
C583        C  0.15351497  0.57658143  0.48287780    -0.04500
C584        C  0.15841429  0.62424861  0.47856743    -0.31900
C585        C  0.19949401  0.64921603  0.48871512     0.37300
C586        C  0.23728323  0.62649621  0.50321338    -0.04900
C587        C  0.23161842  0.57913976  0.50829039    -0.31800
C588        C  0.19029192  0.55431449  0.49857554     0.37200
H589        H  0.13059028  0.64235536  0.46691807     0.17600
O590        O  0.20367427  0.69533736  0.48295666    -0.59300
H591        H  0.25705760  0.57746361  0.02795760     0.17600
O592        O  0.18571909  0.52154134  0.01394064    -0.59400
H593        H  0.17406068  0.52517223  0.03355485     0.44600
H594        H  0.17443528  0.71001489  0.49111334     0.44600
C595        C  0.00740267  0.01554888  0.28530610    -0.04500
C596        C  0.01218671  0.97121107  0.29654244    -0.31900
C597        C  0.01063183  0.96430267  0.32579797     0.37300
C598        C  0.50191129  0.99814575  0.34514535    -0.04900
C599        C  0.50320055  0.56939675  0.33884874    -0.31800
C600        C  0.49029888  0.58539053  0.31211317     0.37200
H601        H  0.01658209  0.94180541  0.28259594     0.17600
O602        O  0.01435542  0.92038594  0.33593982    -0.59300
H603        H  0.50925441  0.59432043  0.35576791     0.17600
O604        O  0.48514965  0.63195106  0.30870793    -0.59400
H605        H  0.45081790  0.63828454  0.31386761     0.44600
H606        H  0.04969932  0.91633939  0.33980109     0.44600
C607        C  0.52756316  0.04294906  0.11453998    -0.04500
C608        C  0.50386848  0.53907904  0.10141029    -0.31900
C609        C  0.50608284  0.53274353  0.07213943     0.37300
C610        C  0.50321398  0.01014104  0.05970410    -0.04900
C611        C  0.99434470  0.97900296  0.08453515    -0.31800
C612        C  0.00529608  0.99667757  0.11180781     0.37200
H613        H  0.51268695  0.57285105  0.11017108     0.17600
O614        O  0.51914860  0.56938001  0.05559880    -0.59300
H615        H  0.97930293  0.94436922  0.08214260     0.17600
O616        O  0.99512739  0.97066943  0.13509078    -0.59400
H617        H  0.01528844  0.94269069  0.13332040     0.44600
H618        H  0.48884303  0.58724958  0.05315354     0.44600
C619        C  0.25981523  0.74951279  0.36646095    -0.04500
C620        C  0.26503842  0.79187249  0.35262963    -0.31900
C621        C  0.25991410  0.79470254  0.32329379     0.37300
C622        C  0.24992609  0.75460097  0.30698807    -0.04900
C623        C  0.24566448  0.71210029  0.32065019    -0.31800
C624        C  0.24992626  0.70936195  0.35011142     0.37200
H625        H  0.27304010  0.82304544  0.36469286     0.17600
O626        O  0.26496427  0.83692710  0.31078691    -0.59300
H627        H  0.23730124  0.68101403  0.30853923     0.17600
O628        O  0.24057115  0.66796034  0.36280829    -0.59400
H629        H  0.26654573  0.64702962  0.35622771     0.44600
H630        H  0.29957491  0.83886043  0.30478196     0.44600
C631        C  0.38810010  0.61450284  0.42331444    -0.04500
C632        C  0.33828432  0.60194527  0.42329172    -0.31900
C633        C  0.30252893  0.63333513  0.41537936     0.37300
C634        C  0.31611408  0.67803110  0.40665243    -0.04900
C635        C  0.36593586  0.68880081  0.40344949    -0.31800
C636        C  0.40190074  0.65754147  0.41177570     0.37200
H637        H  0.32663515  0.56861836  0.43115040     0.17600
O638        O  0.25424660  0.62237514  0.41996347    -0.59300
H639        H  0.37706834  0.72341348  0.39758925     0.17600
O640        O  0.45015330  0.67090982  0.41045576    -0.59400
H641        H  0.45725101  0.68687694  0.42866817     0.44600
H642        H  0.24468900  0.60075505  0.40447045     0.44600
C643        C  0.12961144  0.87371182  0.42522170    -0.04500
C644        C  0.17783094  0.88713375  0.43180958    -0.31900
C645        C  0.21692320  0.85929643  0.42400402     0.37300
C646        C  0.20812146  0.81694498  0.40979623    -0.04900
C647        C  0.16056909  0.80579534  0.40066306    -0.31800
C648        C  0.12137333  0.83383170  0.40821787     0.37200
H649        H  0.18520247  0.91849006  0.44385711     0.17600
O650        O  0.26351443  0.87167802  0.43236120    -0.59300
H651        H  0.15307212  0.77295622  0.39023803     0.17600
O652        O  0.07487258  0.82013921  0.40048961    -0.59400
H653        H  0.06330987  0.80000510  0.41591315     0.44600
H654        H  0.26409329  0.86785595  0.45310223     0.44600
N655        N  0.26584050  0.74204179  0.89661065    -0.02500
C656        C  0.30812601  0.72622256  0.90844245     0.00100
C657        C  0.32172546  0.75251143  0.93152520    -0.22800
C658        C  0.28688740  0.78474085  0.93516926    -0.23000
C659        C  0.25318457  0.77797020  0.91389666     0.00000
H660        H  0.35358359  0.74754456  0.94448936     0.13800
H661        H  0.28548638  0.81059557  0.95158886     0.13800
Zn662      Zn  0.49075669  0.93670634  0.92826729     1.49700
Zn663      Zn  0.05043402  0.96455396  0.98108375     1.49400
Zn664      Zn  0.53332996  0.53642727  0.93324145     1.49100
Zn665      Zn  0.44176908  0.99070249  0.97663024     1.49500
O666        O  0.49883235  0.98621574  0.95440008    -1.83200
O667        O  0.05055859  0.89026903  0.92675808    -0.73800
O668        O  0.11211399  0.51276297  0.98007477    -0.73600
O669        O  0.54032689  0.52417077  0.89111933    -0.73100
O670        O  0.09379888  0.91339913  0.96450264    -0.73800
O671        O  0.47855547  0.96172017  0.88953384    -0.73400
O672        O  0.08784888  0.57046898  0.95306186    -0.75800
O673        O  0.41681115  0.54851124  0.95234264    -0.73400
O674        O  0.01947109  0.95920477  0.51627956    -0.74100
O675        O  0.47917152  0.58323827  0.93122265    -0.73500
O676        O  0.45192304  0.00337827  0.51408037    -0.74000
O677        O  0.41359652  0.92709984  0.98170769    -0.73900
O678        O  0.44376215  0.88966912  0.94461870    -0.73700
C679        C  0.08878001  0.88858947  0.94209655     0.78100
C680        C  0.11747769  0.55388187  0.97127708     0.78600
C681        C  0.50046506  0.99624770  0.87839504     0.77500
C682        C  0.43360098  0.58051509  0.93658177     0.77900
C683        C  0.48553159  0.98471569  0.52876497     0.79100
C684        C  0.41904876  0.89024213  0.96734526     0.78100
N685        N  0.29832085  0.70231948  0.01456941    -0.02500
C686        C  0.28856343  0.65789887  0.00671086     0.00100
C687        C  0.32645275  0.64054663  0.99121450    -0.22800
C688        C  0.35935782  0.67593114  0.98760181    -0.23000
C689        C  0.34106513  0.71395580  0.00169254     0.00000
H690        H  0.32752039  0.60684150  0.98138767     0.13800
H691        H  0.39130561  0.67451809  0.97437803     0.13800
N692        N  0.02338914  0.04034661  0.64273379    -0.02500
C693        C  0.47585542  0.54324256  0.66251639     0.00100
C694        C  0.50191403  0.54990151  0.68708776    -0.22800
C695        C  0.08559455  0.05980029  0.67227127    -0.23000
C696        C  0.06374086  0.02480269  0.65655280     0.00000
H697        H  0.49795449  0.57806632  0.70163365     0.13800
H698        H  0.11617004  0.05669614  0.68664843     0.13800
Zn699      Zn  0.21720503  0.80252094  0.72727727     1.49700
Zn700      Zn  0.17548502  0.75290070  0.67441095     1.49400
Zn701      Zn  0.28692285  0.76643447  0.67956927     1.49100
Zn702      Zn  0.23419172  0.69522205  0.71891983     1.49500
O703        O  0.22898566  0.75407540  0.70046035    -1.83200
O704        O  0.16571802  0.84794574  0.71228885    -0.73800
O705        O  0.20232018  0.73560063  0.63628863    -0.73600
O706        O  0.32957802  0.81431437  0.70003546    -0.73100
O707        O  0.14771044  0.81644958  0.67050803    -0.73800
O708        O  0.27943621  0.83864175  0.73341982    -0.73400
O709        O  0.26883571  0.78074618  0.63948178    -0.74000
O710        O  0.28609772  0.65438167  0.69890558    -0.73400
O711        O  0.12324054  0.71004732  0.69055012    -0.74100
O712        O  0.32504777  0.70877194  0.67483870    -0.73500
O713        O  0.16714604  0.66529000  0.71870874    -0.74000
O714        O  0.24756039  0.70871628  0.76091582    -0.73900
O715        O  0.20668268  0.77451353  0.76571105    -0.73700
C716        C  0.14498136  0.84986185  0.68801633     0.78100
C717        C  0.23960354  0.75487249  0.62498901     0.78600
C718        C  0.32111303  0.83930538  0.72173115     0.77500
C719        C  0.32026191  0.66686479  0.68212318     0.77900
C720        C  0.12623078  0.67730964  0.70829685     0.79100
C721        C  0.22939992  0.74053878  0.77642146     0.78100
N722        N  0.99563404  0.02391875  0.75949173    -0.02500
C723        C  0.45737011  0.98109793  0.74091582     0.00100
C724        C  0.45647644  0.99645531  0.71358118    -0.22800
C725        C  0.90502154  0.60774522  0.74177409    -0.23000
C726        C  0.94920386  0.59450900  0.75311573     0.00000
H727        H  0.43743250  0.98074481  0.69573406     0.13800
H728        H  0.89798937  0.63791328  0.72940126     0.13800
C729        C  0.08101730  0.65527081  0.71914312    -0.04500
C730        C  0.04073360  0.68288384  0.72517519    -0.31900
C731        C  0.99924071  0.66441059  0.73827280     0.37300
C732        C  0.99645429  0.61690692  0.74468923    -0.04900
C733        C  0.03746602  0.58964964  0.73940562    -0.31800
C734        C  0.07936934  0.60843249  0.72675808     0.37200
H735        H  0.04201254  0.71940469  0.72054561     0.17600
O736        O  0.96184754  0.69339697  0.74492916    -0.59300
H737        H  0.03643394  0.55317150  0.74404014     0.17600
O738        O  0.11818832  0.58043765  0.72144162    -0.59400
H739        H  0.11370300  0.57011592  0.70158792     0.44600
H740        H  0.96783860  0.70263755  0.76486411     0.44600
C741        C  0.35979340  0.87054048  0.73355711    -0.04500
C742        C  0.34652952  0.90903873  0.75000192    -0.31900
C743        C  0.38109889  0.94339666  0.75728172     0.37300
C744        C  0.42963940  0.93923922  0.74835695    -0.04900
C745        C  0.44419738  0.89801172  0.73543134    -0.31800
C746        C  0.40966254  0.86393338  0.72772841     0.37200
H747        H  0.30860669  0.91441078  0.75535776     0.17600
O748        O  0.36574527  0.98353777  0.76964749    -0.59300
H749        H  0.48156037  0.89459158  0.72834035     0.17600
O750        O  0.42482542  0.82527197  0.71358263    -0.59400
H751        H  0.42978117  0.83509130  0.69383868     0.44600
H752        H  0.37656683  0.98177292  0.78960077     0.44600
C753        C  0.11852590  0.89205690  0.67931088    -0.04500
C754        C  0.11860706  0.90554347  0.65079623    -0.31900
C755        C  0.09802402  0.94745919  0.64239157     0.37300
C756        C  0.07543575  0.97594842  0.66240244    -0.04900
C757        C  0.07302338  0.96121726  0.69052673    -0.31800
C758        C  0.09473075  0.92015618  0.69909354     0.37200
H759        H  0.13689725  0.88464595  0.63516956     0.17600
O760        O  0.10241384  0.96120079  0.61495677    -0.59300
H761        H  0.05629438  0.98300219  0.70631559     0.17600
O762        O  0.09230559  0.90774470  0.72686300    -0.59400
H763        H  0.11722304  0.92734948  0.73675150     0.44600
H764        H  0.13221545  0.98115533  0.61463190     0.44600
C765        C  0.43352210  0.57306887  0.65652568    -0.04500
C766        C  0.38584359  0.55579549  0.66094029    -0.31900
C767        C  0.34750641  0.58572968  0.66816866     0.37300
C768        C  0.35687822  0.63360945  0.67107334    -0.04900
C769        C  0.40332577  0.65082448  0.66352374    -0.31800
C770        C  0.44136131  0.62115649  0.65668885     0.37200
H771        H  0.37921542  0.51886566  0.66119633     0.17600
O772        O  0.30124106  0.56809947  0.67235555    -0.59300
H773        H  0.41144697  0.68749525  0.66480067     0.17600
O774        O  0.48733536  0.63928709  0.65225264    -0.59400
H775        H  0.49970446  0.64929036  0.67110646     0.44600
H776        H  0.30392550  0.54626273  0.68819948     0.44600
C777        C  0.28184452  0.71226953  0.54137395    -0.04500
C778        C  0.23262316  0.70889961  0.54976688    -0.31900
C779        C  0.21763239  0.72452194  0.57628726     0.37300
C780        C  0.25195221  0.74424351  0.59530735    -0.04900
C781        C  0.30074535  0.74909054  0.58682401    -0.31800
C782        C  0.31602961  0.73249949  0.56066784     0.37200
H783        H  0.20517482  0.69337057  0.53630767     0.17600
O784        O  0.16948645  0.71907040  0.58359974    -0.59300
H785        H  0.32814772  0.76334789  0.60122077     0.17600
O786        O  0.36506643  0.73439292  0.55496868    -0.59400
H787        H  0.37823713  0.70508569  0.56215629     0.44600
H788        H  0.15344926  0.74768388  0.57736758     0.44600
C789        C  0.39966908  0.84645555  0.97856014    -0.04500
C790        C  0.35284403  0.84386603  0.99022426    -0.31900
C791        C  0.33371594  0.80171208  0.99997024     0.37300
C792        C  0.36251123  0.76158767  0.99898804    -0.04900
C793        C  0.41145188  0.76614191  0.99031818    -0.31800
C794        C  0.42946455  0.80748903  0.97936366     0.37200
H795        H  0.32987579  0.87395278  0.99022861     0.17600
O796        O  0.28530999  0.79942018  0.00714399    -0.59300
H797        H  0.43537167  0.73679618  0.99042921     0.17600
O798        O  0.47670237  0.80966213  0.96988937    -0.59400
H799        H  0.47523336  0.79674654  0.95044617     0.44600
H800        H  0.28295158  0.81696223  0.02513391     0.44600
C801        C  0.15867465  0.58279697  0.98315852    -0.04500
C802        C  0.16624694  0.62822802  0.97381704    -0.31900
C803        C  0.20613336  0.65511502  0.98369749     0.37300
C804        C  0.23929760  0.63684537  0.00332751    -0.04900
C805        C  0.23094235  0.59240347  0.01354005    -0.31800
C806        C  0.19097876  0.56556135  0.00395254     0.37200
H807        H  0.14225481  0.64252745  0.95801579     0.17600
O808        O  0.21528939  0.69736971  0.97190262    -0.59300
H809        H  0.26065687  0.56075223  0.51873911     0.17600
O810        O  0.18801649  0.50766521  0.50301920    -0.59400
H811        H  0.17458646  0.50422588  0.52224534     0.44600
H812        H  0.19091483  0.71834476  0.98021895     0.44600
C813        C  0.00426148  0.01562643  0.78928492    -0.04500
C814        C  0.00764320  0.97029569  0.79940695    -0.31900
C815        C  0.00779304  0.96123598  0.82846745     0.37300
C816        C  0.50056738  0.99962401  0.84723545    -0.04900
C817        C  0.49917597  0.56173872  0.83979701    -0.31800
C818        C  0.48483696  0.57653730  0.81303059     0.37200
H819        H  0.00927258  0.94154642  0.78475889     0.17600
O820        O  0.00882950  0.91637169  0.83725322    -0.59300
H821        H  0.50421875  0.58721224  0.85650937     0.17600
O822        O  0.47657327  0.62260917  0.80939931    -0.59400
H823        H  0.44142209  0.62664665  0.81361209     0.44600
H824        H  0.04399676  0.90931781  0.83938578     0.44600
C825        C  0.51669357  0.02886623  0.61407774    -0.04500
C826        C  0.49982883  0.53408541  0.60177301    -0.31900
C827        C  0.50154476  0.52963084  0.57237994     0.37300
C828        C  0.49312676  0.99973857  0.55835393    -0.04900
C829        C  0.97307428  0.97316217  0.57985149    -0.31800
C830        C  0.98187165  0.98678292  0.60814893     0.37200
H831        H  0.50910408  0.56725366  0.61125457     0.17600
O832        O  0.51479888  0.56720471  0.55668430    -0.59300
H833        H  0.95066121  0.94279409  0.57529347     0.17600
O834        O  0.96117233  0.96213795  0.62958625    -0.59400
H835        H  0.98438502  0.93709875  0.63355358     0.44600
H836        H  0.48449540  0.58515478  0.55448088     0.44600
C837        C  0.25426933  0.74017444  0.86671569    -0.04500
C838        C  0.25578053  0.78132330  0.85131139    -0.31900
C839        C  0.24720779  0.78154521  0.82224705     0.37300
C840        C  0.23693570  0.74000366  0.80750559    -0.04900
C841        C  0.23570206  0.69855380  0.82265065    -0.31800
C842        C  0.24409668  0.69844899  0.85206682     0.37200
H843        H  0.26491379  0.81368357  0.86184018     0.17600
O844        O  0.25049244  0.82268036  0.80830131    -0.59300
H845        H  0.22775228  0.66624873  0.81172743     0.17600
O846        O  0.24048750  0.65779041  0.86635796    -0.59400
H847        H  0.26839939  0.63915768  0.85986438     0.44600
H848        H  0.28484883  0.82502285  0.80185749     0.44600
C849        C  0.39955927  0.61433590  0.92337417    -0.04500
C850        C  0.34859189  0.60790396  0.92542813    -0.31900
C851        C  0.31604991  0.64198094  0.91640942     0.37300
C852        C  0.33399096  0.68236286  0.90349343    -0.04900
C853        C  0.38433969  0.68589693  0.89813188    -0.31800
C854        C  0.41703300  0.65302121  0.90828801     0.37200
H855        H  0.33382435  0.57766317  0.93573984     0.17600
O856        O  0.26779005  0.63870240  0.92399018    -0.59300
H857        H  0.39912240  0.71720771  0.88898997     0.17600
O858        O  0.46617036  0.66059479  0.90453308    -0.59400
H859        H  0.47673142  0.68069272  0.92059112     0.44600
H860        H  0.25457081  0.61054376  0.91439710     0.44600
C861        C  0.12932926  0.85948496  0.93225942    -0.04500
C862        C  0.17448722  0.88062697  0.92656206    -0.31900
C863        C  0.21370687  0.85471800  0.91671908     0.37300
C864        C  0.20862002  0.80649403  0.91293331    -0.04900
C865        C  0.16249493  0.78566863  0.91686969    -0.31800
C866        C  0.12278949  0.81197398  0.92621756     0.37200
H867        H  0.17947072  0.91746656  0.92985123     0.17600
O868        O  0.25761556  0.87653422  0.91147733    -0.59300
H869        H  0.15810114  0.74859457  0.91461527     0.17600
O870        O  0.07838265  0.79064583  0.93052998    -0.59400
H871        H  0.08056645  0.77754526  0.94970679     0.44600
H872        H  0.27055791  0.88685269  0.93013343     0.44600
N873        N  0.71231071  0.20016908  0.39205248    -0.02500
C874        C  0.71831214  0.15828227  0.40447468     0.00100
C875        C  0.67908179  0.14850651  0.42181862    -0.22800
C876        C  0.64862190  0.18521282  0.42048942    -0.23000
C877        C  0.67013710  0.21689183  0.40302301     0.00000
H878        H  0.67462166  0.11956032  0.43577456     0.13800
H879        H  0.61562416  0.19005689  0.43239293     0.13800
Zn880      Zn  0.98439249  0.44354736  0.42076632     1.49700
Zn881      Zn  0.55180597  0.46148791  0.47569930     1.49400
Zn882      Zn  0.00069767  0.04158154  0.43276366     1.49100
Zn883      Zn  0.94242542  0.50095926  0.46986467     1.49500
O884        O  0.00042900  0.48798452  0.44925823    -1.83200
O885        O  0.53820366  0.39813503  0.41732341    -0.73800
O886        O  0.58087275  0.02849526  0.48433268    -0.73600
O887        O  0.01868340  0.02776223  0.39185242    -0.73100
O888        O  0.58249091  0.40313688  0.45678997    -0.73800
O889        O  0.97600186  0.47494901  0.38320526    -0.73400
O890        O  0.55116133  0.08075079  0.45522977    -0.75800
O891        O  0.88510454  0.02722912  0.45342843    -0.73400
O892        O  0.52786330  0.45298201  0.01777241    -0.74100
O893        O  0.93494011  0.07230106  0.42860617    -0.73500
O894        O  0.97069707  0.50646098  0.01553032    -0.74000
O895        O  0.90022618  0.44365681  0.47094743    -0.73900
O896        O  0.92888547  0.40295556  0.43484580    -0.73700
C897        C  0.57304579  0.38410146  0.43271907     0.78100
C898        C  0.58059545  0.06946396  0.47509931     0.78600
C899        C  0.00384065  0.50687418  0.37358736     0.77500
C900        C  0.89199572  0.06061114  0.43637997     0.77900
C901        C  0.00278557  0.48518919  0.02998097     0.79100
C902        C  0.90110027  0.40678431  0.45622008     0.78100
N903        N  0.75657379  0.23255373  0.50571755    -0.02500
C904        C  0.73801681  0.19163781  0.49551953     0.00100
C905        C  0.76414065  0.17654821  0.47268915    -0.22800
C906        C  0.79855268  0.20960363  0.46736762    -0.23000
C907        C  0.79324055  0.24372006  0.48749230     0.00000
H908        H  0.75766931  0.14504088  0.46088289     0.13800
H909        H  0.82407173  0.20973377  0.45015418     0.13800
N910        N  0.49257601  0.51068199  0.14969375    -0.02500
C911        C  0.03946033  0.10461122  0.14963004     0.00100
C912        C  0.08019805  0.11849268  0.16525326    -0.22800
C913        C  0.53386499  0.52404034  0.19063751    -0.23000
C914        C  0.52655198  0.49388956  0.16820089     0.00000
H915        H  0.08598862  0.15097019  0.17619452     0.13800
H916        H  0.55731667  0.51922251  0.20881393     0.13800
Zn917      Zn  0.73265777  0.31300163  0.22994213     1.49700
Zn918      Zn  0.70262221  0.25379507  0.17907881     1.49400
Zn919      Zn  0.81007328  0.29414357  0.18054517     1.49100
Zn920      Zn  0.77810215  0.21412226  0.22169953     1.49500
O921        O  0.75720057  0.26942085  0.20281629    -1.83200
O922        O  0.66839610  0.34255843  0.21640313    -0.73800
O923        O  0.72654105  0.24243085  0.13970622    -0.73600
O924        O  0.83423856  0.35678645  0.19819272    -0.73100
O925        O  0.65821091  0.30770689  0.17487468    -0.73800
O926        O  0.78100830  0.36474136  0.23308654    -0.73400
O927        O  0.78740197  0.29498884  0.13928139    -0.74000
O928        O  0.83791587  0.18639754  0.20147465    -0.73400
O929        O  0.66477018  0.20195578  0.19830075    -0.74100
O930        O  0.86501606  0.24789197  0.17830168    -0.73500
O931        O  0.72191395  0.16837424  0.22411376    -0.74000
O932        O  0.78726162  0.22868456  0.26333682    -0.73900
O933        O  0.73094761  0.28315536  0.26857773    -0.73700
C934        C  0.64698667  0.33914801  0.19237152     0.78100
C935        C  0.75777103  0.26704923  0.12639974     0.78600
C936        C  0.81835462  0.37901624  0.21972199     0.77500
C937        C  0.86912365  0.20566544  0.18518014     0.77900
C938        C  0.67764492  0.17137233  0.21597981     0.79100
C939        C  0.75843700  0.25212185  0.27883210     0.78100
N940        N  0.45678475  0.56944468  0.26385642    -0.02500
C941        C  0.90135581  0.55520816  0.25592696     0.00100
C942        C  0.87790630  0.59037190  0.24231858    -0.22800
C943        C  0.51159108  0.04052891  0.21191903    -0.23000
C944        C  0.52551107  0.04633725  0.23959352     0.00000
H945        H  0.84238115  0.58845022  0.23226870     0.13800
H946        H  0.52224170  0.06220509  0.19493016     0.13800
C947        C  0.63974778  0.14069371  0.22860575    -0.04500
C948        C  0.59169238  0.15657473  0.23073537    -0.31900
C949        C  0.55382137  0.12746306  0.23973508     0.37300
C950        C  0.56341391  0.08147413  0.24684544    -0.04900
C951        C  0.61219991  0.06738563  0.24839139    -0.31800
C952        C  0.65031649  0.09643490  0.23901683     0.37200
H953        H  0.58284163  0.19100222  0.22390966     0.17600
O954        O  0.50653351  0.14224777  0.23789172    -0.59300
H955        H  0.62017614  0.03192487  0.25344617     0.17600
O956        O  0.69698617  0.07992592  0.23818659    -0.59400
H957        H  0.69860503  0.06166028  0.22042691     0.44600
H958        H  0.50176013  0.16154560  0.25500027     0.44600
C959        C  0.84229952  0.42270946  0.23013545    -0.04500
C960        C  0.81602946  0.45190315  0.24834798    -0.31900
C961        C  0.83634117  0.49349561  0.25862816     0.37300
C962        C  0.88418660  0.50668946  0.25137478    -0.04900
C963        C  0.91119776  0.47681210  0.23419521    -0.31800
C964        C  0.89060115  0.43558914  0.22322884     0.37200
H965        H  0.77882436  0.44314856  0.25415787     0.17600
O966        O  0.80834826  0.52194365  0.27491748    -0.59300
H967        H  0.94819394  0.48584555  0.22877657     0.17600
O968        O  0.91824104  0.40806174  0.20614960    -0.59400
H969        H  0.91867934  0.42356212  0.18761274     0.44600
H970        H  0.81846129  0.51582584  0.29462712     0.44600
C971        C  0.61009603  0.37344303  0.18385625    -0.04500
C972        C  0.61389956  0.39510810  0.15748560    -0.31900
C973        C  0.58400308  0.43246873  0.15052752     0.37300
C974        C  0.54788684  0.44705858  0.16942140    -0.04900
C975        C  0.54149076  0.42246741  0.19464764    -0.31800
C976        C  0.57279088  0.38682195  0.20218921     0.37200
H977        H  0.64245896  0.38517214  0.14305894     0.17600
O978        O  0.59267508  0.45623509  0.12621460    -0.59300
H979        H  0.51441110  0.43346769  0.20973007     0.17600
O980        O  0.56698463  0.36565088  0.22768227    -0.59400
H981        H  0.58300248  0.38672015  0.24169018     0.44600
H982        H  0.61713681  0.48052829  0.13147898     0.44600
C983        C  0.99263738  0.13087870  0.15125887    -0.04500
C984        C  0.94843283  0.10739672  0.15707387    -0.31900
C985        C  0.90832347  0.13079823  0.16861794     0.37300
C986        C  0.91077915  0.17906579  0.17314530    -0.04900
C987        C  0.95304620  0.20297184  0.16434584    -0.31800
C988        C  0.99366718  0.17948681  0.15379797     0.37200
H989        H  0.94629400  0.07019615  0.15498545     0.17600
O990        O  0.86686004  0.10609703  0.17521629    -0.59300
H991        H  0.95542909  0.24018682  0.16648006     0.17600
O992        O  0.03443606  0.20438137  0.14597878    -0.59400
H993        H  0.04643088  0.22055225  0.16330408     0.44600
H994        H  0.87402555  0.09192231  0.19369096     0.44600
C995        C  0.76774392  0.24201840  0.03685148    -0.04500
C996        C  0.72193442  0.24605872  0.04975131    -0.31900
C997        C  0.71811721  0.25533520  0.07869573     0.37300
C998        C  0.76057165  0.26186497  0.09536997    -0.04900
C999        C  0.80636770  0.26012103  0.08240889    -0.31800
C1000       C  0.81026329  0.24927474  0.05367070     0.37200
H1001       H  0.68880312  0.24105072  0.03761142     0.17600
O1002       O  0.67261544  0.25713899  0.09055657    -0.59300
H1003       H  0.83945015  0.26441019  0.09495998     0.17600
O1004       O  0.85596046  0.24305137  0.04276870    -0.59400
H1005       H  0.86156340  0.20941730  0.04378422     0.44600
H1006       H  0.66468048  0.29037700  0.09131786     0.44600
C1007       C  0.87311442  0.36600356  0.46591395    -0.04500
C1008       C  0.82531053  0.36994933  0.47630970    -0.31900
C1009       C  0.79945155  0.33086627  0.48594639     0.37300
C1010       C  0.82189492  0.28750521  0.48573357    -0.04900
C1011       C  0.87092494  0.28466437  0.47738137    -0.31800
C1012       C  0.89619225  0.32308168  0.46720189     0.37200
H1013       H  0.80748375  0.40302206  0.47607415     0.17600
O1014       O  0.75135498  0.33479584  0.49334936    -0.59300
H1015       H  0.88912781  0.25174424  0.47745923     0.17600
O1016       O  0.94404294  0.31856898  0.45926111    -0.59400
H1017       H  0.94260114  0.30526839  0.43991457     0.44600
H1018       H  0.75211288  0.34534110  0.51329791     0.44600
C1019       C  0.61617605  0.10367521  0.48776450    -0.04500
C1020       C  0.60980040  0.15126034  0.48430842    -0.31900
C1021       C  0.64744905  0.18310939  0.49155382     0.37300
C1022       C  0.69190432  0.16741926  0.50287226    -0.04900
C1023       C  0.69539519  0.12083639  0.50994766    -0.31800
C1024       C  0.65829516  0.08904888  0.50251911     0.37200
H1025       H  0.57697094  0.16357354  0.47417228     0.17600
O1026       O  0.64339137  0.22826322  0.48359602    -0.59300
H1027       H  0.74143720  0.10109401  0.01998567     0.17600
O1028       O  0.67621449  0.03823001  0.00828972    -0.59400
H1029       H  0.66447117  0.03201606  0.02762181     0.44600
H1030       H  0.61677173  0.24104049  0.49523272     0.44600
C1031       C  0.47950564  0.55386227  0.28981384    -0.04500
C1032       C  0.48440496  0.50639893  0.29505830    -0.31900
C1033       C  0.49551389  0.49044770  0.32220765     0.37300
C1034       C  0.99822416  0.52131134  0.34395582    -0.04900
C1035       C  0.00191145  0.04651913  0.33320849    -0.31800
C1036       C  0.00177736  0.05325818  0.30410286     0.37200
H1037       H  0.47793277  0.48136332  0.27834230     0.17600
O1038       O  0.49692879  0.44388328  0.32679730    -0.59300
H1039       H  0.99699450  0.07600683  0.34706969     0.17600
O1040       O  0.99342515  0.09672928  0.29432562    -0.59400
H1041       H  0.95777185  0.09751990  0.29040661     0.44600
H1042       H  0.53195380  0.43589734  0.32542104     0.44600
C1043       C  0.00007472  0.50081650  0.12101461    -0.04500
C1044       C  0.03336127  0.06816852  0.09094397    -0.31900
C1045       C  0.02196410  0.05094197  0.06401340     0.37300
C1046       C  0.00219461  0.48961791  0.06133350    -0.04900
C1047       C  0.48514258  0.45194402  0.07783025    -0.31800
C1048       C  0.48190558  0.45860436  0.10736750     0.37200
H1049       H  0.04989682  0.10227408  0.09292824     0.17600
O1050       O  0.03224954  0.07752434  0.04098891    -0.59300
H1051       H  0.47726468  0.41811675  0.06881769     0.17600
O1052       O  0.46748464  0.42268911  0.12412063    -0.59400
H1053       H  0.49361483  0.39952479  0.12259936     0.44600
H1054       H  0.00454942  0.09898005  0.03936873     0.44600
C1055       C  0.73131322  0.21307162  0.36474299    -0.04500
C1056       C  0.74068716  0.25966724  0.35832038    -0.31900
C1057       C  0.75108154  0.27317853  0.33057604     0.37300
C1058       C  0.75357564  0.23979425  0.30887089    -0.04900
C1059       C  0.74633769  0.19325905  0.31544471    -0.31800
C1060       C  0.73447819  0.17980836  0.34279833     0.37200
H1061       H  0.73857878  0.28584341  0.37464230     0.17600
O1062       O  0.75761687  0.31908205  0.32477571    -0.59300
H1063       H  0.74671608  0.16726394  0.29884833     0.17600
O1064       O  0.72120110  0.13462474  0.34714850    -0.59400
H1065       H  0.75181009  0.11697982  0.34550136     0.44600
H1066       H  0.79254565  0.32593334  0.32909816     0.44600
C1067       C  0.84902707  0.08500386  0.42445730    -0.04500
C1068       C  0.80391907  0.06142383  0.42209734    -0.31900
C1069       C  0.76223558  0.08344098  0.41201830     0.37300
C1070       C  0.76418732  0.13079677  0.40523138    -0.04900
C1071       C  0.81016018  0.15313973  0.40482733    -0.31800
C1072       C  0.85235163  0.13068793  0.41436481     0.37200
H1073       H  0.80078666  0.02560833  0.42821478     0.17600
O1074       O  0.71924435  0.05856079  0.40988067    -0.59300
H1075       H  0.81296149  0.18919992  0.39925996     0.17600
O1076       O  0.89608147  0.15456076  0.41491502    -0.59400
H1077       H  0.89902149  0.16772803  0.43424452     0.44600
H1078       H  0.71613665  0.04987091  0.38966641     0.44600
C1079       C  0.60165099  0.34418100  0.42193286    -0.04500
C1080       C  0.64984718  0.33680264  0.43115630    -0.31900
C1081       C  0.67551622  0.29770994  0.42207483     0.37300
C1082       C  0.65324372  0.26520491  0.40347080    -0.04900
C1083       C  0.60623677  0.27375671  0.39318865    -0.31800
C1084       C  0.58053320  0.31257138  0.40210840     0.37200
H1085       H  0.66721257  0.36065805  0.44601171     0.17600
O1086       O  0.72120557  0.28997655  0.43292320    -0.59300
H1087       H  0.58787031  0.24833583  0.37973257     0.17600
O1088       O  0.53353457  0.31764189  0.39244926    -0.59400
H1089       H  0.51276064  0.30009607  0.40575895     0.44600
H1090       H  0.71548077  0.27184318  0.45021331     0.44600
N1091       N  0.71676109  0.19067357  0.89397947    -0.02500
C1092       C  0.72393695  0.14879268  0.90619653     0.00100
C1093       C  0.68573210  0.13838992  0.92412823    -0.22800
C1094       C  0.65488261  0.17487951  0.92351819    -0.23000
C1095       C  0.67524533  0.20705349  0.90597804     0.00000
H1096       H  0.68230501  0.10910231  0.93791084     0.13800
H1097       H  0.62225409  0.17923254  0.93576010     0.13800
Zn1098     Zn  0.99337880  0.43954518  0.92443429     1.49700
Zn1099     Zn  0.55795335  0.45525210  0.97748024     1.49400
Zn1100     Zn  0.00664982  0.03489397  0.93661560     1.49100
Zn1101     Zn  0.95204705  0.49542416  0.97441480     1.49500
O1102       O  0.00978154  0.48479388  0.95253592    -1.83200
O1103       O  0.54656983  0.39146650  0.91930122    -0.73800
O1104       O  0.59028259  0.02731730  0.98585643    -0.73600
O1105       O  0.02294485  0.02114966  0.89572619    -0.73100
O1106       O  0.58686951  0.39444725  0.96016253    -0.73800
O1107       O  0.98417088  0.46828723  0.88617561    -0.73400
O1108       O  0.56243568  0.08131596  0.95717083    -0.75800
O1109       O  0.89136300  0.02119913  0.95653390    -0.73400
O1110       O  0.52222892  0.45444632  0.51585312    -0.74100
O1111       O  0.94151120  0.06682560  0.93238989    -0.73500
O1112       O  0.96067957  0.51255677  0.51093134    -0.74000
O1113       O  0.91107606  0.43778857  0.97550982    -0.73900
O1114       O  0.93787618  0.39912595  0.93816010    -0.73700
C1115       C  0.57926458  0.37599817  0.93572301     0.78100
C1116       C  0.59128115  0.06844817  0.97699254     0.78600
C1117       C  0.00966811  0.50094433  0.87552932     0.77500
C1118       C  0.89839141  0.05449831  0.93944976     0.77900
C1119       C  0.98653995  0.48548775  0.52582158     0.79100
C1120       C  0.91080675  0.40199960  0.95985397     0.78100
N1121       N  0.77126103  0.22524407  0.00803788    -0.02500
C1122       C  0.75133727  0.18491182  0.99792216     0.00100
C1123       C  0.77510919  0.17034219  0.97410923    -0.22800
C1124       C  0.80945865  0.20319540  0.96825330    -0.23000
C1125       C  0.80676691  0.23634313  0.98915404     0.00000
H1126       H  0.76658263  0.13975032  0.96180977     0.13800
H1127       H  0.83267366  0.20421314  0.95001880     0.13800
N1128       N  0.48832566  0.50294969  0.64942572    -0.02500
C1129       C  0.01932484  0.08526968  0.65114183     0.00100
C1130       C  0.05795805  0.09800111  0.66867106    -0.22800
C1131       C  0.53014171  0.51233462  0.69060575    -0.23000
C1132       C  0.52106631  0.48367263  0.66767641     0.00000
H1133       H  0.06268866  0.13008610  0.68013214     0.13800
H1134       H  0.55301207  0.50537120  0.70874260     0.13800
Zn1135     Zn  0.72107587  0.30043028  0.72991739     1.49700
Zn1136     Zn  0.69042327  0.24231656  0.67771344     1.49400
Zn1137     Zn  0.79733366  0.28184696  0.68023242     1.49100
Zn1138     Zn  0.76340728  0.20108858  0.72067516     1.49500
O1139       O  0.74425100  0.25715617  0.70221014    -1.83200
O1140       O  0.65710656  0.33074406  0.71647322    -0.73800
O1141       O  0.71346120  0.23482947  0.63767374    -0.73600
O1142       O  0.82537761  0.34188249  0.69960340    -0.73100
O1143       O  0.64678114  0.29597846  0.67484754    -0.73800
O1144       O  0.77090156  0.35124775  0.73366152    -0.73400
O1145       O  0.77362632  0.28804928  0.63932835    -0.74000
O1146       O  0.82079017  0.17192610  0.69957566    -0.73400
O1147       O  0.65117608  0.19046812  0.69577227    -0.74100
O1148       O  0.84898665  0.23289241  0.67621795    -0.73500
O1149       O  0.70584800  0.15734801  0.72350022    -0.74000
O1150       O  0.77511962  0.21468656  0.76213342    -0.73900
O1151       O  0.72005096  0.26993508  0.76850676    -0.73700
C1152       C  0.63586471  0.32736722  0.69237200     0.78100
C1153       C  0.74386772  0.26170234  0.62533436     0.78600
C1154       C  0.80969592  0.36419119  0.72115062     0.77500
C1155       C  0.85177711  0.19045422  0.68288298     0.77900
C1156       C  0.66228950  0.16061687  0.71429155     0.79100
C1157       C  0.74783271  0.23865013  0.77823757     0.78100
N1158       N  0.45433000  0.55864644  0.76438803    -0.02500
C1159       C  0.89792095  0.53735880  0.75869397     0.00100
C1160       C  0.87283152  0.57189934  0.74536473    -0.22800
C1161       C  0.48609142  0.03448832  0.71314730    -0.23000
C1162       C  0.50407570  0.04159379  0.73995042     0.00000
H1163       H  0.83657651  0.56925768  0.73620988     0.13800
H1164       H  0.49682718  0.05326541  0.69494361     0.13800
C1165       C  0.62298783  0.13153635  0.72675723    -0.04500
C1166       C  0.57540481  0.14886655  0.72767985    -0.31900
C1167       C  0.53621465  0.12125746  0.73638138     0.37300
C1168       C  0.54407086  0.07558711  0.74478041    -0.04900
C1169       C  0.59216048  0.05998409  0.74727825    -0.31800
C1170       C  0.63166097  0.08755988  0.73817709     0.37200
H1171       H  0.56801097  0.18316335  0.72005630     0.17600
O1172       O  0.48955099  0.13728133  0.73346173    -0.59300
H1173       H  0.59867756  0.02471909  0.75341844     0.17600
O1174       O  0.67793777  0.07007534  0.73888144    -0.59400
H1175       H  0.67976703  0.04916628  0.72225181     0.44600
H1176       H  0.48386120  0.15604524  0.75067985     0.44600
C1177       C  0.83556183  0.40640012  0.73258360    -0.04500
C1178       C  0.80991925  0.43632139  0.75061046    -0.31900
C1179       C  0.83161423  0.47691612  0.76147420     0.37300
C1180       C  0.88025187  0.48866785  0.75487912    -0.04900
C1181       C  0.90685056  0.45765891  0.73822392    -0.31800
C1182       C  0.88491384  0.41724098  0.72679386     0.37200
H1183       H  0.77204255  0.42909864  0.75570084     0.17600
O1184       O  0.80395293  0.50628318  0.77733863    -0.59300
H1185       H  0.94437377  0.46558447  0.73330489     0.17600
O1186       O  0.91211493  0.38874894  0.71010797    -0.59400
H1187       H  0.91053787  0.40233759  0.69103926     0.44600
H1188       H  0.81272979  0.49967482  0.79718701     0.44600
C1189       C  0.59996536  0.36191049  0.68339970    -0.04500
C1190       C  0.60682919  0.38480127  0.65766432    -0.31900
C1191       C  0.57770843  0.42231135  0.65025459     0.37300
C1192       C  0.53969822  0.43598449  0.66806532    -0.04900
C1193       C  0.52998159  0.40987424  0.69236113    -0.31800
C1194       C  0.56023844  0.37371178  0.70033127     0.37200
H1195       H  0.63707791  0.37565265  0.64421837     0.17600
O1196       O  0.58898896  0.44727533  0.62674788    -0.59300
H1197       H  0.50138385  0.42028540  0.70661892     0.17600
O1198       O  0.55111318  0.35057182  0.72484429    -0.59400
H1199       H  0.56596102  0.37012247  0.74002158     0.44600
H1200       H  0.61265444  0.47143484  0.63331869     0.44600
C1201       C  0.97333378  0.11231499  0.65070342    -0.04500
C1202       C  0.92839094  0.08986397  0.65596220    -0.31900
C1203       C  0.88830528  0.11456640  0.66634813     0.37300
C1204       C  0.89213899  0.16282845  0.67058882    -0.04900
C1205       C  0.93521751  0.18562043  0.66210266    -0.31800
C1206       C  0.97558327  0.16091856  0.65250918     0.37200
H1207       H  0.92557398  0.05261842  0.65444639     0.17600
O1208       O  0.84567952  0.09117529  0.67227623    -0.59300
H1209       H  0.93860823  0.22280452  0.66407134     0.17600
O1210       O  0.01763076  0.18448420  0.64541548    -0.59400
H1211       H  0.02915938  0.20044474  0.66291256     0.44600
H1212       H  0.85137097  0.07681114  0.69086158     0.44600
C1213       C  0.75313664  0.24762225  0.53488971    -0.04500
C1214       C  0.70731507  0.25106858  0.54789469    -0.31900
C1215       C  0.70358781  0.25719112  0.57720879     0.37300
C1216       C  0.74614318  0.26082276  0.59411457    -0.04900
C1217       C  0.79185173  0.26028275  0.58104460    -0.31800
C1218       C  0.79566971  0.25273958  0.55195030     0.37200
H1219       H  0.67421163  0.24764566  0.53546464     0.17600
O1220       O  0.65815547  0.25866554  0.58916955    -0.59300
H1221       H  0.82498091  0.26266485  0.59370241     0.17600
O1222       O  0.84133174  0.24722332  0.54085708    -0.59400
H1223       H  0.84700563  0.21355638  0.54118695     0.44600
H1224       H  0.65040130  0.29191722  0.59047457     0.44600
C1225       C  0.88294542  0.36090960  0.96879841    -0.04500
C1226       C  0.90677864  0.31860850  0.96806689    -0.31900
C1227       C  0.88379950  0.27872368  0.97771867     0.37300
C1228       C  0.83514017  0.28003741  0.98723375    -0.04900
C1229       C  0.81171096  0.32265624  0.98916087    -0.31800
C1230       C  0.83573890  0.36324861  0.98042610     0.37200
H1231       H  0.94387796  0.31653491  0.96033236     0.17600
O1232       O  0.90869758  0.23805090  0.97681203    -0.59300
H1233       H  0.77410030  0.32414539  0.99605570     0.17600
O1234       O  0.81179719  0.40437696  0.98169914    -0.59400
H1235       H  0.81746929  0.41619772  0.00116228     0.44600
H1236       H  0.92619151  0.23655508  0.99514819     0.44600
C1237       C  0.62755572  0.10095799  0.99030142    -0.04500
C1238       C  0.62190394  0.14874698  0.98817383    -0.31900
C1239       C  0.66070520  0.17925836  0.99518528     0.37300
C1240       C  0.70500102  0.16193025  0.00575881    -0.04900
C1241       C  0.70742107  0.11504787  0.01222490    -0.31800
C1242       C  0.66945008  0.08451544  0.00448231     0.37200
H1243       H  0.58885205  0.16227739  0.97893744     0.17600
O1244       O  0.65787638  0.22461612  0.98745050    -0.59300
H1245       H  0.72958081  0.10805859  0.51823590     0.17600
O1246       O  0.66621288  0.04318950  0.50723823    -0.59400
H1247       H  0.65542329  0.03791598  0.52685831     0.44600
H1248       H  0.63084052  0.23769467  0.99863080     0.44600
C1249       C  0.47603316  0.54421432  0.79087804    -0.04500
C1250       C  0.48263661  0.49712505  0.79654255    -0.31900
C1251       C  0.49503727  0.48226829  0.82377784     0.37300
C1252       C  0.00316568  0.51192300  0.84519947    -0.04900
C1253       C  0.00574634  0.04322720  0.83818295    -0.31800
C1254       C  0.00357932  0.05223997  0.80926635     0.37200
H1255       H  0.47679382  0.47155099  0.78004559     0.17600
O1256       O  0.49832872  0.43593994  0.82878213    -0.59300
H1257       H  0.00437916  0.07202880  0.85289162     0.17600
O1258       O  0.99817036  0.09701903  0.80102103    -0.59400
H1259       H  0.96236555  0.10144241  0.79959498     0.44600
H1260       H  0.53354280  0.42901182  0.82694737     0.44600
C1261       C  0.98156028  0.49239990  0.61702288    -0.04500
C1262       C  0.03103392  0.05131049  0.59184592    -0.31900
C1263       C  0.02231115  0.03797853  0.56387228     0.37300
C1264       C  0.98328758  0.48808515  0.55708230    -0.04900
C1265       C  0.47970216  0.44871588  0.57619138    -0.31800
C1266       C  0.47702803  0.45345129  0.60589943     0.37200
H1267       H  0.05414807  0.08129937  0.59620174     0.17600
O1268       O  0.04320465  0.06315242  0.54268114    -0.59300
H1269       H  0.47126832  0.41557688  0.56639355     0.17600
O1270       O  0.46234324  0.41658352  0.62180317    -0.59400
H1271       H  0.48794959  0.39308697  0.61940209     0.44600
H1272       H  0.01958238  0.08778526  0.53849383     0.44600
C1273       C  0.73196176  0.20252963  0.86570753    -0.04500
C1274       C  0.73954972  0.24892852  0.85823326    -0.31900
C1275       C  0.74588529  0.26143746  0.82990833     0.37300
C1276       C  0.74587958  0.22728315  0.80856125    -0.04900
C1277       C  0.74024109  0.18096344  0.81605143    -0.31800
C1278       C  0.73250567  0.16844944  0.84407267     0.37200
H1279       H  0.73915949  0.27568709  0.87428882     0.17600
O1280       O  0.75117787  0.30713728  0.82327145    -0.59300
H1281       H  0.73890428  0.15434046  0.79982268     0.17600
O1282       O  0.72074694  0.12327629  0.84958286    -0.59400
H1283       H  0.75149802  0.10612170  0.84707011     0.44600
H1284       H  0.78696161  0.31327068  0.82345285     0.44600
C1285       C  0.85550898  0.07794003  0.92663282    -0.04500
C1286       C  0.81110992  0.05337436  0.92343991    -0.31900
C1287       C  0.76930663  0.07460657  0.91284985     0.37300
C1288       C  0.77035359  0.12206994  0.90638448    -0.04900
C1289       C  0.81587837  0.14525119  0.90637509    -0.31800
C1290       C  0.85824372  0.12365228  0.91649223     0.37200
H1291       H  0.80857858  0.01745828  0.92941094     0.17600
O1292       O  0.72693418  0.04894171  0.91002893    -0.59300
H1293       H  0.81798290  0.18136189  0.90083395     0.17600
O1294       O  0.90141264  0.14842055  0.91761521    -0.59400
H1295       H  0.90487507  0.15916831  0.93745766     0.44600
H1296       H  0.72541135  0.03959305  0.88986724     0.44600
C1297       C  0.60726942  0.33505078  0.92564786    -0.04500
C1298       C  0.65536794  0.32707165  0.93493238    -0.31900
C1299       C  0.68073781  0.28774163  0.92572544     0.37300
C1300       C  0.65808529  0.25537762  0.90713447    -0.04900
C1301       C  0.61093394  0.26418103  0.89716605    -0.31800
C1302       C  0.58573803  0.30338091  0.90602214     0.37200
H1303       H  0.67309725  0.35095030  0.94963327     0.17600
O1304       O  0.72690567  0.28015092  0.93595924    -0.59300
H1305       H  0.59224139  0.23891051  0.88375458     0.17600
O1306       O  0.53884613  0.30901139  0.89634451    -0.59400
H1307       H  0.51785310  0.29159516  0.90959158     0.44600
H1308       H  0.72208097  0.26311582  0.95375771     0.44600
N1309       N  0.76072732  0.75202943  0.39617251    -0.02500
C1310       C  0.78196850  0.71993346  0.41287806     0.00100
C1311       C  0.77399987  0.72981077  0.44072866    -0.22800
C1312       C  0.74834245  0.76935817  0.44202289    -0.23000
C1313       C  0.74071033  0.78265695  0.41464956     0.00000
H1314       H  0.78466597  0.70909932  0.45812877     0.13800
H1315       H  0.73391547  0.78533284  0.46083333     0.13800
Zn1316     Zn  0.98652386  0.93451452  0.42375669     1.49700
Zn1317     Zn  0.54253160  0.97023384  0.47800379     1.49400
Zn1318     Zn  0.02275743  0.54312863  0.43089548     1.49100
Zn1319     Zn  0.93302655  0.98407340  0.47291124     1.49500
O1320       O  0.99176402  0.98324128  0.45130130    -1.83200
O1321       O  0.54705388  0.90314745  0.42160229    -0.73800
O1322       O  0.60415974  0.51097865  0.48139370    -0.73600
O1323       O  0.03394424  0.52923623  0.38959404    -0.73100
O1324       O  0.58899402  0.92336705  0.46018608    -0.73800
O1325       O  0.97845211  0.96074271  0.38477788    -0.73400
O1326       O  0.58439570  0.56977205  0.45399580    -0.75800
O1327       O  0.90686108  0.55248244  0.44998232    -0.73400
O1328       O  0.52326092  0.96264309  0.02019644    -0.74100
O1329       O  0.96715609  0.58855845  0.42758161    -0.73500
O1330       O  0.96131947  0.00453243  0.01624581    -0.74000
O1331       O  0.90530921  0.91922648  0.47455066    -0.73900
O1332       O  0.93858725  0.88513015  0.43724980    -0.73700
C1333       C  0.58543297  0.90149651  0.43665273     0.78100
C1334       C  0.61190724  0.55203099  0.47284667     0.78600
C1335       C  0.00087799  0.99635045  0.37530259     0.77500
C1336       C  0.92200681  0.58463085  0.43382830     0.77900
C1337       C  0.99495390  0.98737161  0.03159034     0.79100
C1338       C  0.91190419  0.88352507  0.45923128     0.78100
N1339       N  0.79744825  0.69716383  0.51526044    -0.02500
C1340       C  0.78560741  0.65245250  0.50848134     0.00100
C1341       C  0.82243789  0.63278633  0.49307198    -0.22800
C1342       C  0.85643207  0.66668799  0.48830232    -0.23000
C1343       C  0.83972661  0.70670704  0.50103114     0.00000
H1344       H  0.82171946  0.59888220  0.48330916     0.13800
H1345       H  0.88696851  0.66294808  0.47426995     0.13800
N1346       N  0.54822142  0.05906821  0.14110543    -0.02500
C1347       C  0.97463234  0.53847727  0.16701153     0.00100
C1348       C  0.99169034  0.54010863  0.19424652    -0.22800
C1349       C  0.61792435  0.08136787  0.16327530    -0.23000
C1350       C  0.59278080  0.04484973  0.15063016     0.00000
H1351       H  0.97809335  0.56156868  0.21081152     0.13800
H1352       H  0.65230582  0.07976135  0.17462475     0.13800
Zn1353     Zn  0.73706219  0.81834676  0.22393347     1.49700
Zn1354     Zn  0.68897178  0.76632942  0.17403581     1.49400
Zn1355     Zn  0.80206329  0.77610126  0.17504366     1.49100
Zn1356     Zn  0.74989452  0.71101218  0.21872769     1.49500
O1357       O  0.74527306  0.76781785  0.19815796    -1.83200
O1358       O  0.68751178  0.86459888  0.20861840    -0.73800
O1359       O  0.71105347  0.74271783  0.13624316    -0.73600
O1360       O  0.84665147  0.82668537  0.19223612    -0.73100
O1361       O  0.66333157  0.83096260  0.16849837    -0.73800
O1362       O  0.80044689  0.85229459  0.22713891    -0.73400
O1363       O  0.78044147  0.78424559  0.13432559    -0.74000
O1364       O  0.79919940  0.66734012  0.19983802    -0.73400
O1365       O  0.63774860  0.72602358  0.19309422    -0.74100
O1366       O  0.83942174  0.71680310  0.17268847    -0.73500
O1367       O  0.68311330  0.68172118  0.22065141    -0.74000
O1368       O  0.76436158  0.72681472  0.26002364    -0.73900
O1369       O  0.72765297  0.79491734  0.26365428    -0.73700
C1370       C  0.66465830  0.86597510  0.18499138     0.78100
C1371       C  0.74799096  0.75790718  0.12269005     0.78600
C1372       C  0.84058321  0.85269807  0.21384801     0.77500
C1373       C  0.83296125  0.67616294  0.18204590     0.77900
C1374       C  0.64164291  0.69397537  0.21124777     0.79100
C1375       C  0.74755870  0.75995096  0.27495914     0.78100
N1376       N  0.50757840  0.01113439  0.25543278    -0.02500
C1377       C  0.97492722  0.99850255  0.23635096     0.00100
C1378       C  0.97118696  0.02175910  0.21132673    -0.22800
C1379       C  0.42144043  0.62276126  0.23661223    -0.23000
C1380       C  0.46271534  0.61198330  0.25219360     0.00000
H1381       H  0.95069121  0.01110837  0.19269422     0.13800
H1382       H  0.41654392  0.65160606  0.22272018     0.13800
C1383       C  0.59696017  0.67287995  0.22338373    -0.04500
C1384       C  0.55503552  0.69970581  0.22589847    -0.31900
C1385       C  0.51276905  0.68212670  0.23848350     0.37300
C1386       C  0.51074115  0.63592313  0.24767486    -0.04900
C1387       C  0.55376621  0.61007225  0.24684430    -0.31800
C1388       C  0.59658466  0.62818763  0.23487907     0.37200
H1389       H  0.55518857  0.73491396  0.21846518     0.17600
O1390       O  0.47328666  0.71033050  0.24109117    -0.59300
H1391       H  0.55352180  0.57454596  0.25359171     0.17600
O1392       O  0.63728996  0.60127252  0.23369687    -0.59400
H1393       H  0.63343934  0.58275759  0.21609753     0.44600
H1394       H  0.47598491  0.72369427  0.26037230     0.44600
C1395       C  0.88004173  0.88476191  0.22410748    -0.04500
C1396       C  0.86937034  0.91796801  0.24507927    -0.31900
C1397       C  0.90346089  0.95253315  0.25271189     0.37300
C1398       C  0.94920709  0.95401267  0.23965094    -0.04900
C1399       C  0.96184161  0.91830838  0.22098774    -0.31800
C1400       C  0.92765593  0.88406496  0.21298240     0.37200
H1401       H  0.83340099  0.91903633  0.25442420     0.17600
O1402       O  0.88962563  0.98768292  0.27033651    -0.59300
H1403       H  0.99686647  0.91957961  0.21045430     0.17600
O1404       O  0.94070230  0.85134325  0.19347998    -0.59400
H1405       H  0.93680042  0.86629476  0.17491286     0.44600
H1406       H  0.89988999  0.97806338  0.28944254     0.44600
C1407       C  0.64116677  0.90968482  0.17595061    -0.04500
C1408       C  0.63569000  0.91972613  0.14701867    -0.31900
C1409       C  0.61897599  0.96302332  0.13808510     0.37300
C1410       C  0.60535719  0.99649417  0.15811346    -0.04900
C1411       C  0.60999217  0.98586240  0.18681614    -0.31800
C1412       C  0.62760456  0.94343414  0.19581665     0.37200
H1413       H  0.64660493  0.89476264  0.13123217     0.17600
O1414       O  0.61771791  0.97262785  0.10986884    -0.59300
H1415       H  0.60166714  0.01150891  0.20254901     0.17600
O1416       O  0.63134219  0.93543023  0.22418692    -0.59400
H1417       H  0.66165586  0.95195966  0.23043430     0.44600
H1418       H  0.64862983  0.98978436  0.10616458     0.44600
C1419       C  0.93592779  0.57075761  0.15871728    -0.04500
C1420       C  0.88729907  0.55845196  0.16504882    -0.31900
C1421       C  0.85245969  0.59221768  0.17142404     0.37300
C1422       C  0.86638704  0.63930626  0.17204644    -0.04900
C1423       C  0.91398225  0.65160506  0.16352988    -0.31800
C1424       C  0.94857104  0.61792373  0.15724914     0.37200
H1425       H  0.87731549  0.52239948  0.16751605     0.17600
O1426       O  0.80501134  0.57910470  0.17701975    -0.59300
H1427       H  0.92561567  0.68751002  0.16359194     0.17600
O1428       O  0.99616820  0.63131490  0.15257238    -0.59400
H1429       H  0.01070588  0.63690616  0.17156622     0.44600
H1430       H  0.80657645  0.55573120  0.19208554     0.44600
C1431       C  0.78598573  0.70324034  0.04185434    -0.04500
C1432       C  0.76267971  0.74598579  0.04343276    -0.31900
C1433       C  0.74855033  0.76427167  0.06966953     0.37300
C1434       C  0.75733382  0.73933395  0.09440811    -0.04900
C1435       C  0.77902805  0.69613443  0.09267097    -0.31800
C1436       C  0.79338463  0.67806106  0.06677189     0.37200
H1437       H  0.75685900  0.76560140  0.02444673     0.17600
O1438       O  0.72650199  0.80633350  0.07097854    -0.59300
H1439       H  0.78640427  0.67692697  0.11167959     0.17600
O1440       O  0.81748262  0.63695856  0.06619445    -0.59400
H1441       H  0.79145417  0.61278708  0.06711132     0.44600
H1442       H  0.75368025  0.82939059  0.07060579     0.44600
C1443       C  0.89175779  0.83852777  0.46881666    -0.04500
C1444       C  0.84788068  0.83628210  0.48392033    -0.31900
C1445       C  0.83065840  0.79450441  0.49535707     0.37300
C1446       C  0.85856085  0.75391294  0.49282932    -0.04900
C1447       C  0.90368214  0.75736918  0.47870197    -0.31800
C1448       C  0.91943836  0.79832944  0.46613928     0.37200
H1449       H  0.82648670  0.86706887  0.48668118     0.17600
O1450       O  0.78548597  0.79370803  0.50760353    -0.59300
H1451       H  0.92738146  0.72807850  0.47691429     0.17600
O1452       O  0.96358103  0.79917905  0.45260635    -0.59400
H1453       H  0.95640610  0.78735036  0.43328650     0.44600
H1454       H  0.78934262  0.81182522  0.52536491     0.44600
C1455       C  0.65353290  0.57956381  0.48550707    -0.04500
C1456       C  0.65808605  0.62711278  0.48033805    -0.31900
C1457       C  0.69823650  0.65320070  0.49084576     0.37300
C1458       C  0.73547502  0.63170427  0.50644107    -0.04900
C1459       C  0.72955418  0.58487464  0.51291487    -0.31800
C1460       C  0.68916964  0.55897969  0.50290220     0.37200
H1461       H  0.63106145  0.64412063  0.46748297     0.17600
O1462       O  0.70284814  0.69872701  0.48367277    -0.59300
H1463       H  0.78246431  0.54910737  0.00839229     0.17600
O1464       O  0.71023967  0.49623301  0.99155704    -0.59400
H1465       H  0.70324519  0.48543441  0.01089604     0.44600
H1466       H  0.67376046  0.71419635  0.49145442     0.44600
C1467       C  0.50819455  0.00736200  0.28581992    -0.04500
C1468       C  0.51535931  0.96441908  0.29853683    -0.31900
C1469       C  0.51207834  0.95957615  0.32788773     0.37300
C1470       C  0.00515188  0.00219841  0.34440405    -0.04900
C1471       C  0.99891325  0.56854196  0.33811680    -0.31800
C1472       C  0.98432399  0.58466304  0.31175844     0.37200
H1473       H  0.52326089  0.93448775  0.28561681     0.17600
O1474       O  0.51912720  0.91704517  0.33947769    -0.59300
H1475       H  0.00709094  0.59345623  0.35476962     0.17600
O1476       O  0.98016538  0.63136307  0.30854043    -0.59400
H1477       H  0.94654835  0.63854534  0.31471625     0.44600
H1478       H  0.55398694  0.91706069  0.34542289     0.44600
C1479       C  0.02568850  0.04143090  0.11509973    -0.04500
C1480       C  0.04456509  0.50172801  0.10635588    -0.31900
C1481       C  0.04587918  0.49605729  0.07694916     0.37300
C1482       C  0.00304512  0.00584926  0.06051969    -0.04900
C1483       C  0.49870490  0.98089583  0.08300657    -0.31800
C1484       C  0.51005749  0.99730824  0.11050098     0.37200
H1485       H  0.07855916  0.50780016  0.11774888     0.17600
O1486       O  0.09007747  0.49842442  0.06358630    -0.59300
H1487       H  0.48652480  0.94545000  0.07988175     0.17600
O1488       O  0.50321845  0.96926192  0.13332088    -0.59400
H1489       H  0.52041106  0.94019094  0.12905337     0.44600
H1490       H  0.09449408  0.53134328  0.05856248     0.44600
C1491       C  0.75841103  0.75332765  0.36572098    -0.04500
C1492       C  0.76699882  0.79514256  0.35178146    -0.31900
C1493       C  0.76360574  0.79771580  0.32232800     0.37300
C1494       C  0.75151812  0.75799816  0.30613078    -0.04900
C1495       C  0.74304832  0.71615439  0.31999693    -0.31800
C1496       C  0.74592489  0.71368413  0.34952946     0.37200
H1497       H  0.77668399  0.82592534  0.36384839     0.17600
O1498       O  0.77278358  0.83916153  0.30957191    -0.59300
H1499       H  0.73283933  0.68546743  0.30794328     0.17600
O1500       O  0.73313233  0.67325146  0.36246568    -0.59400
H1501       H  0.75794917  0.65061965  0.35655557     0.44600
H1502       H  0.80777154  0.83847328  0.30426558     0.44600
C1503       C  0.88583513  0.61698134  0.42154123    -0.04500
C1504       C  0.83578748  0.60552722  0.42282391    -0.31900
C1505       C  0.80022076  0.63715701  0.41508801     0.37300
C1506       C  0.81405699  0.68125301  0.40551000    -0.04900
C1507       C  0.86381552  0.69097321  0.40107661    -0.31800
C1508       C  0.89970477  0.65928991  0.40902335     0.37200
H1509       H  0.82385297  0.57286079  0.43149405     0.17600
O1510       O  0.75208613  0.62720587  0.42076981    -0.59300
H1511       H  0.87519483  0.72511866  0.39443166     0.17600
O1512       O  0.94805965  0.67145162  0.40613403    -0.59400
H1513       H  0.95660425  0.68954775  0.42339017     0.44600
H1514       H  0.74079826  0.60640715  0.40523808     0.44600
C1515       C  0.62664974  0.87425789  0.42584975    -0.04500
C1516       C  0.67474952  0.88921918  0.43137142    -0.31900
C1517       C  0.71422242  0.86246806  0.42288807     0.37300
C1518       C  0.70591767  0.81971227  0.40908965    -0.04900
C1519       C  0.65818325  0.80700838  0.40100090    -0.31800
C1520       C  0.61857690  0.83394282  0.40926192     0.37200
H1521       H  0.68178368  0.92098468  0.44306947     0.17600
O1522       O  0.76088945  0.87627429  0.43027364    -0.59300
H1523       H  0.65111164  0.77377065  0.39096716     0.17600
O1524       O  0.57203003  0.81879903  0.40267912    -0.59400
H1525       H  0.56211752  0.79881673  0.41854374     0.44600
H1526       H  0.76313653  0.87216493  0.45090366     0.44600
N1527       N  0.75706840  0.73752720  0.90224035    -0.02500
C1528       C  0.77595663  0.70347726  0.91838051     0.00100
C1529       C  0.76633031  0.71157780  0.94631689    -0.22800
C1530       C  0.74190573  0.75188487  0.94818854    -0.23000
C1531       C  0.73644430  0.76725025  0.92103200     0.00000
H1532       H  0.77803189  0.69088048  0.96352599     0.13800
H1533       H  0.72829643  0.76776481  0.96726215     0.13800
Zn1534     Zn  0.98910896  0.92691310  0.92847161     1.49700
Zn1535     Zn  0.55001045  0.97094725  0.98029798     1.49400
Zn1536     Zn  0.02812887  0.54036565  0.93278663     1.49100
Zn1537     Zn  0.93994660  0.98049518  0.97754085     1.49500
O1538       O  0.99755373  0.97667251  0.95537469    -1.83200
O1539       O  0.55304357  0.90328691  0.92417773    -0.73800
O1540       O  0.61335623  0.50174197  0.98170854    -0.73600
O1541       O  0.03798624  0.52640490  0.89095913    -0.73100
O1542       O  0.59425802  0.92091113  0.96347351    -0.73800
O1543       O  0.98311655  0.95386542  0.88879060    -0.73400
O1544       O  0.59561668  0.56072798  0.95379029    -0.75800
O1545       O  0.91303016  0.54511818  0.95512306    -0.73400
O1546       O  0.51647645  0.95769551  0.51748594    -0.74100
O1547       O  0.96944851  0.58224366  0.93019900    -0.73500
O1548       O  0.95247803  0.00193231  0.51322964    -0.74000
O1549       O  0.91274661  0.91585764  0.98240074    -0.73900
O1550       O  0.93678511  0.88140619  0.94285877    -0.73700
C1551       C  0.59037534  0.89909348  0.93992507     0.78100
C1552       C  0.62306652  0.54187845  0.97229258     0.78600
C1553       C  0.00441958  0.99014868  0.87919404     0.77500
C1554       C  0.92516724  0.57683272  0.93790244     0.77900
C1555       C  0.98701270  0.98440467  0.52775214     0.79100
C1556       C  0.91402941  0.88032322  0.96635567     0.78100
N1557       N  0.80542307  0.68637062  0.01564098    -0.02500
C1558       C  0.79920457  0.64152357  0.00735545     0.00100
C1559       C  0.84143444  0.62582214  0.99505315    -0.22800
C1560       C  0.87337004  0.66270340  0.99401562    -0.23000
C1561       C  0.85023162  0.70003839  0.00613060     0.00000
H1562       H  0.84672792  0.59246095  0.98534889     0.13800
H1563       H  0.90748046  0.66352985  0.98260901     0.13800
N1564       N  0.53380652  0.04389978  0.64168043    -0.02500
C1565       C  0.96097032  0.52701523  0.66452240     0.00100
C1566       C  0.97502275  0.52206506  0.69207663    -0.22800
C1567       C  0.60254466  0.06600281  0.66503471    -0.23000
C1568       C  0.57729844  0.02943811  0.65264005     0.00000
H1569       H  0.96238658  0.54189249  0.70963664     0.13800
H1570       H  0.63650410  0.06440244  0.67678190     0.13800
Zn1571     Zn  0.73361258  0.81256774  0.73049167     1.49700
Zn1572     Zn  0.68978856  0.75952240  0.67870394     1.49400
Zn1573     Zn  0.80306125  0.77109439  0.68323061     1.49100
Zn1574     Zn  0.74779638  0.70484118  0.72436572     1.49500
O1575       O  0.74396820  0.76229781  0.70448764    -1.83200
O1576       O  0.68111966  0.85747098  0.71513859    -0.73800
O1577       O  0.71547052  0.74157139  0.64011190    -0.73600
O1578       O  0.84708520  0.82060637  0.70184382    -0.73100
O1579       O  0.66151646  0.82284277  0.67447962    -0.73800
O1580       O  0.79585634  0.84848755  0.73357343    -0.73400
O1581       O  0.78571919  0.78166986  0.64235285    -0.74000
O1582       O  0.79525431  0.66105852  0.70411556    -0.73400
O1583       O  0.63745547  0.71684184  0.69548840    -0.74100
O1584       O  0.83917726  0.71173374  0.67980554    -0.73500
O1585       O  0.68074288  0.67599296  0.72597971    -0.74000
O1586       O  0.76336997  0.71941661  0.76566900    -0.73900
O1587       O  0.72758189  0.78789453  0.77053399    -0.73700
C1588       C  0.65945119  0.85760958  0.69103541     0.78100
C1589       C  0.75366977  0.75821304  0.62826649     0.78600
C1590       C  0.83775151  0.84826397  0.72218986     0.77500
C1591       C  0.83000905  0.67040639  0.68708229     0.77900
C1592       C  0.64010447  0.68613944  0.71458656     0.79100
C1593       C  0.74756580  0.75232072  0.78118762     0.78100
N1594       N  0.48636594  0.00882648  0.75762428    -0.02500
C1595       C  0.96345214  0.00042465  0.74233936     0.00100
C1596       C  0.95283198  0.02487885  0.71847364    -0.22800
C1597       C  0.41918767  0.61160248  0.73682694    -0.23000
C1598       C  0.46019318  0.60115076  0.75266933     0.00000
H1599       H  0.92823417  0.01456622  0.70148700     0.13800
H1600       H  0.41433523  0.64061882  0.72309466     0.13800
C1601       C  0.59482522  0.66412954  0.72549177    -0.04500
C1602       C  0.55260088  0.69054664  0.72804198    -0.31900
C1603       C  0.51003776  0.67209393  0.73995255     0.37300
C1604       C  0.50816078  0.62555484  0.74856627    -0.04900
C1605       C  0.55136270  0.59997172  0.74753679    -0.31800
C1606       C  0.59430659  0.61882288  0.73606279     0.37200
H1607       H  0.55281349  0.72609323  0.72121891     0.17600
O1608       O  0.47018845  0.69984730  0.74255755    -0.59300
H1609       H  0.55111514  0.56413095  0.75368764     0.17600
O1610       O  0.63505311  0.59204268  0.73436709    -0.59400
H1611       H  0.63104419  0.57417019  0.71652809     0.44600
H1612       H  0.47014019  0.70982007  0.76261155     0.44600
C1613       C  0.87495653  0.88214082  0.73288374    -0.04500
C1614       C  0.85961737  0.91878408  0.75029899    -0.31900
C1615       C  0.89127604  0.95542869  0.75729570     0.37300
C1616       C  0.93913893  0.95582484  0.74707129    -0.04900
C1617       C  0.95627758  0.91724244  0.73231287    -0.31800
C1618       C  0.92462232  0.88032584  0.72524647     0.37200
H1619       H  0.82195219  0.92081911  0.75700533     0.17600
O1620       O  0.87332268  0.99331850  0.77105938    -0.59300
H1621       H  0.99307529  0.91755155  0.72411716     0.17600
O1622       O  0.94222855  0.84355927  0.71022653    -0.59400
H1623       H  0.94513110  0.85442322  0.69056271     0.44600
H1624       H  0.88709513  0.99202221  0.79042363     0.44600
C1625       C  0.63288434  0.89923164  0.68108364    -0.04500
C1626       C  0.63045353  0.90876411  0.65195010    -0.31900
C1627       C  0.60974843  0.94972529  0.64192405     0.37300
C1628       C  0.58927043  0.98135660  0.66090855    -0.04900
C1629       C  0.58961584  0.97068404  0.68978632    -0.31800
C1630       C  0.61144052  0.93058768  0.69995296     0.37200
H1631       H  0.64681056  0.88540288  0.63690630     0.17600
O1632       O  0.61147551  0.95927307  0.61371490    -0.59300
H1633       H  0.57498292  0.99487269  0.70479254     0.17600
O1634       O  0.61135722  0.92237846  0.72836406    -0.59400
H1635       H  0.63780269  0.94249044  0.73637233     0.44600
H1636       H  0.64364637  0.97474530  0.61089119     0.44600
C1637       C  0.92542441  0.56304531  0.65757150    -0.04500
C1638       C  0.87570923  0.55298846  0.66224121    -0.31900
C1639       C  0.84358138  0.58764024  0.67106622     0.37300
C1640       C  0.86104220  0.63330633  0.67516835    -0.04900
C1641       C  0.90957473  0.64397674  0.66775521    -0.31800
C1642       C  0.94167890  0.60934996  0.65945456     0.37200
H1643       H  0.86280409  0.51743963  0.66170862     0.17600
O1644       O  0.79534244  0.57657448  0.67568134    -0.59300
H1645       H  0.92381985  0.67888439  0.67031250     0.17600
O1646       O  0.99022359  0.62041440  0.65595223    -0.59400
H1647       H  0.00479845  0.62023044  0.67514806     0.44600
H1648       H  0.79499327  0.55748660  0.69287487     0.44600
C1649       C  0.78576719  0.71702824  0.54261770    -0.04500
C1650       C  0.73698828  0.71950155  0.55165376    -0.31900
C1651       C  0.72558615  0.73458567  0.57901108     0.37300
C1652       C  0.76321822  0.74762542  0.59810803    -0.04900
C1653       C  0.81179789  0.74662322  0.58887264    -0.31800
C1654       C  0.82329734  0.73091439  0.56180909     0.37200
H1655       H  0.70738311  0.70911445  0.53776698     0.17600
O1656       O  0.67752544  0.73560427  0.58695710    -0.59300
H1657       H  0.84152890  0.75576586  0.60321570     0.17600
O1658       O  0.87168992  0.72728945  0.55494931    -0.59400
H1659       H  0.88072566  0.69556553  0.56030044     0.44600
H1660       H  0.66671881  0.76726336  0.58269511     0.44600
C1661       C  0.89178009  0.83603760  0.97629620    -0.04500
C1662       C  0.88476218  0.82884813  0.00540826    -0.31900
C1663       C  0.87038431  0.78525407  0.01582621     0.37300
C1664       C  0.86254648  0.74800779  0.99698072    -0.04900
C1665       C  0.86920170  0.75559053  0.96804857    -0.31800
C1666       C  0.88270385  0.79880272  0.95761539     0.37200
H1667       H  0.89271362  0.85651363  0.02036692     0.17600
O1668       O  0.86879013  0.77830359  0.04437867    -0.59300
H1669       H  0.86460413  0.72732826  0.95328003     0.17600
O1670       O  0.88835381  0.80370908  0.92910688    -0.59400
H1671       H  0.85479657  0.80757861  0.92149555     0.44600
H1672       H  0.84655049  0.80196405  0.05206204     0.44600
C1673       C  0.66690199  0.56712322  0.98375033    -0.04500
C1674       C  0.66679267  0.61538188  0.98627602    -0.31900
C1675       C  0.70775032  0.63999671  0.99691805     0.37300
C1676       C  0.75105550  0.61660497  0.00394610    -0.04900
C1677       C  0.75013044  0.56811488  0.00274816    -0.31800
C1678       C  0.70854071  0.54344277  0.99320522     0.37200
H1679       H  0.63470835  0.63425458  0.98000349     0.17600
O1680       O  0.70579803  0.68711044  0.99856633    -0.59300
H1681       H  0.75815832  0.56745900  0.52436354     0.17600
O1682       O  0.68695636  0.51277626  0.50873329    -0.59400
H1683       H  0.67218125  0.51079965  0.52770651     0.44600
H1684       H  0.68439270  0.69379294  0.01482352     0.44600
C1685       C  0.49335125  0.00621991  0.78779772    -0.04500
C1686       C  0.50067553  0.96343586  0.80057303    -0.31900
C1687       C  0.50388212  0.95987115  0.82996983     0.37300
C1688       C  0.00643026  0.99788793  0.84822539    -0.04900
C1689       C  0.00592054  0.55806452  0.83689248    -0.31800
C1690       C  0.98929859  0.57148536  0.81027768     0.37200
H1691       H  0.50371551  0.93257319  0.78771311     0.17600
O1692       O  0.51012115  0.91727278  0.84162481    -0.59300
H1693       H  0.01728510  0.58462891  0.85192429     0.17600
O1694       O  0.98793101  0.61780731  0.80495988    -0.59400
H1695       H  0.95592510  0.62804865  0.81218923     0.44600
H1696       H  0.54599631  0.91291400  0.84221190     0.44600
C1697       C  0.01119835  0.02607371  0.61424639    -0.04500
C1698       C  0.98553929  0.53273140  0.60095456    -0.31900
C1699       C  0.98553499  0.53090342  0.57137771     0.37300
C1700       C  0.99360701  0.99848885  0.55760778    -0.04900
C1701       C  0.48464459  0.97014173  0.58117996    -0.31800
C1702       C  0.49600016  0.98467887  0.60905782     0.37200
H1703       H  0.98972632  0.56590858  0.61134427     0.17600
O1704       O  0.99034682  0.57114099  0.55665326    -0.59300
H1705       H  0.46954141  0.93583880  0.57738585     0.17600
O1706       O  0.48603066  0.95615226  0.63122511    -0.59400
H1707       H  0.50791827  0.92949148  0.62890864     0.44600
H1708       H  0.95667947  0.58301665  0.55486718     0.44600
C1709       C  0.75671954  0.74061781  0.87183641    -0.04500
C1710       C  0.76811602  0.78270999  0.85883601    -0.31900
C1711       C  0.76598074  0.78689732  0.82937611     0.37300
C1712       C  0.75194988  0.74867666  0.81232042    -0.04900
C1713       C  0.74143843  0.70642606  0.82528888    -0.31800
C1714       C  0.74343463  0.70225455  0.85473716     0.37200
H1715       H  0.77891880  0.81238698  0.87162937     0.17600
O1716       O  0.77821900  0.82834889  0.81745635    -0.59300
H1717       H  0.73015590  0.67677847  0.81257950     0.17600
O1718       O  0.72903291  0.66145897  0.86671682    -0.59400
H1719       H  0.75402183  0.63877262  0.86114097     0.44600
H1720       H  0.81404870  0.82724258  0.81447487     0.44600
C1721       C  0.88643515  0.60673689  0.92592226    -0.04500
C1722       C  0.83724966  0.59219143  0.92747284    -0.31900
C1723       C  0.79943743  0.62168616  0.92008935     0.37300
C1724       C  0.81016342  0.66655603  0.91060671    -0.04900
C1725       C  0.85898945  0.67877279  0.90515116    -0.31800
C1726       C  0.89714441  0.64949175  0.91305209     0.37200
H1727       H  0.82777406  0.55883254  0.93614091     0.17600
O1728       O  0.75208444  0.60865636  0.92570884    -0.59300
H1729       H  0.86793610  0.71333635  0.89817389     0.17600
O1730       O  0.94455979  0.66453893  0.90989533    -0.59400
H1731       H  0.95242493  0.68244348  0.92733097     0.44600
H1732       H  0.74113537  0.59018743  0.90904577     0.44600
C1733       C  0.62948774  0.86806832  0.93024081    -0.04500
C1734       C  0.67872129  0.87989345  0.93530605    -0.31900
C1735       C  0.71582019  0.84932918  0.92797755     0.37300
C1736       C  0.70398135  0.80618816  0.91550107    -0.04900
C1737       C  0.65521208  0.79599946  0.90829269    -0.31800
C1738       C  0.61801948  0.82648296  0.91560377     0.37200
H1739       H  0.68837326  0.91225382  0.94573343     0.17600
O1740       O  0.76349256  0.86045437  0.93475462    -0.59300
H1741       H  0.64537270  0.76234951  0.89959121     0.17600
O1742       O  0.57030863  0.81369559  0.91018561    -0.59400
H1743       H  0.56026381  0.79484134  0.92653794     0.44600
H1744       H  0.76715124  0.85332589  0.95504403     0.44600
loop_ 
_geom_bond_atom_site_label_1 
_geom_bond_atom_site_label_2 
_geom_bond_distance 
_geom_bond_site_symmetry_2 
_ccdc_geom_bond_type 
N1            C5   1.364       .  A
N1            C2   1.367       .  A
N1          C183   1.453       .  S
C2            C3   1.386       .  A
C2          C198   1.499       .  S
C3            C4   1.365       .  A
C3            H6   1.081       .  S
C4            C5   1.373       .  A
C4            H7   1.079       .  S
C5          C210   1.480       .  S
Zn8          O12   1.911       .  S
Zn8          O17   2.041       .  S
Zn8          O24   2.036       .  S
Zn8         O885   1.985       .  S
Zn9         O884   1.922       .  S
Zn9          O16   2.086       .  S
Zn9         O450   2.011       .  S
Zn9         O238   2.070       .  S
Zn10        O448   1.928   1_545  S
Zn10         O15   2.048       .  S
Zn10         O21   2.030       .  S
Zn10        O890   2.083       .  S
Zn11         O12   1.918       .  S
Zn11         O23   2.003       .  S
Zn11        O455   2.038       .  S
Zn11        O240   2.037       .  S
O12        Zn881   1.932       .  S
O12        Zn446   1.929       .  S
O13        Zn880   1.977   1_455  S
O13          C25   1.269       .  A
O14        Zn445   1.986   1_545  S
O14          C26   1.270       .  A
O15         C463   1.283   1_545  A
O16          C25   1.284       .  A
O17          C27   1.280       .  A
O18        Zn882   2.083       .  S
O18          C26   1.283       .  A
O19        Zn447   2.050   1_545  S
O19          C28   1.282       .  A
O20        Zn227   2.070   1_554  S
O20         C901   1.285       .  A
O21          C28   1.276       .  A
O22        Zn229   2.035   1_554  S
O22          C29   1.281       .  A
O23          C30   1.271       .  A
O24          C30   1.279       .  A
C25         C207   1.494       .  S
C26         C147   1.495       .  S
C27         C162   1.485       .  S
C27         O451   1.279       .  A
C28         C195   1.492       .  S
C29         C174   1.491       .  S
C29         O892   1.286       .  A
C30         C135   1.479       .  S
N31          C35   1.367       .  A
N31          C32   1.365       .  A
N31         C341   1.447       .  S
C32          C33   1.373       .  A
C32         C150   1.481       .  S
C33          C34   1.357       .  A
C33          H36   1.078       .  S
C34          C35   1.376       .  A
C34          H37   1.076       .  S
C35         C138   1.488       .  S
N38          C42   1.367       .  A
N38        C1347   1.367   1_455  A
N38        C1043   1.451       .  S
C39        N1346   1.368       .  A
C39          C40   1.380       .  A
C39         C111   1.501       .  S
C40        C1349   1.367       .  A
C40          H43   1.077       .  S
C41          C42   1.376       .  A
C41        C1348   1.357   1_455  A
C41          H44   1.083       .  S
C42         C102   1.475       .  S
Zn45         O49   1.915       .  S
Zn45         O50   2.043       .  S
Zn45         O54   1.972       .  S
Zn45         O61   2.032       .  S
Zn46         O49   1.911       .  S
Zn46         O51   2.003       .  S
Zn46         O53   1.992       .  S
Zn46         O57   2.001       .  S
Zn47         O49   1.926       .  S
Zn47         O52   2.084       .  S
Zn47         O55   2.060       .  S
Zn47         O58   2.022       .  S
Zn48         O49   1.934       .  S
Zn48         O56   2.076       .  S
Zn48         O59   2.037       .  S
Zn48         O60   2.033       .  S
O50          C62   1.278       .  A
O51          C63   1.277       .  A
O52          C64   1.284       .  A
O53          C62   1.268       .  A
O54          C64   1.270       .  A
O55          C63   1.284       .  A
O56          C65   1.284       .  A
O57          C66   1.275       .  A
O58          C65   1.277       .  A
O59          C66   1.275       .  A
O60          C67   1.282       .  A
O61          C67   1.280       .  A
C62          C99   1.475       .  S
C63         C126   1.483       .  S
C64          C87   1.493       .  S
C65         C114   1.498       .  S
C66          C75   1.482       .  S
C67         C186   1.481       .  S
N68         C508   1.367       .  A
N68         C941   1.364       .  A
N68         C159   1.455       .  S
C69         N940   1.360       .  A
C69          C70   1.374       .  A
C69          C90   1.475       .  S
C70        C1379   1.364       .  A
C70          H73   1.078       .  S
C71          C72   1.371   1_655  A
C71        C1378   1.358       .  A
C71          H74   1.066   1_655  S
C72         N504   1.359       .  A
C72          C78   1.477       .  S
C75          C76   1.404       .  A
C75          C80   1.411       .  A
C76          C77   1.393       .  A
C76          H81   1.084       .  S
C77          C78   1.406       .  A
C77          O82   1.372       .  S
C78          C79   1.405       .  A
C79          C80   1.408       .  A
C79          H83   1.083       .  S
C80          O84   1.371       .  S
O82          H86   0.991       .  S
O84          H85   0.992       .  S
C87          C88   1.416       .  A
C87          C92   1.409       .  A
C88          C89   1.400       .  A
C88          H93   1.083       .  S
C89          C90   1.398       .  A
C89          O94   1.372       .  S
C90          C91   1.404       .  A
C91          C92   1.402       .  A
C91          H95   1.077       .  S
C92          O96   1.372       .  S
O94          H98   0.992       .  S
O96          H97   0.992       .  S
C99         C100   1.399       .  A
C99         C104   1.411       .  A
C100        C101   1.397       .  A
C100        H105   1.084       .  S
C101        C102   1.408       .  A
C101        O106   1.372       .  S
C102        C103   1.404       .  A
C103        C104   1.407       .  A
C103        H107   1.084       .  S
C104        O108   1.372       .  S
O106        H110   0.992       .  S
O108        H109   0.992       .  S
C111        C112   1.408       .  A
C111        C116   1.412       .  A
C112        C113   1.410       .  A
C112        H117   1.083       .  S
C113        C114   1.412       .  A
C113        O118   1.371       .  S
C114        C115   1.408       .  A
C115        C116   1.405       .  A
C115        H119   1.084       .  S
C116        O120   1.374       .  S
O118        H122   0.992       .  S
O120        H121   0.992       .  S
C123        N249   1.450       .  S
C123        C124   1.404       .  A
C123        C128   1.418       .  A
C124        C125   1.405       .  A
C124        H129   1.080       .  S
C125        C126   1.412       .  A
C125        O130   1.372       .  S
C126        C127   1.400       .  A
C127        C128   1.400       .  A
C127        H131   1.084       .  S
C128        O132   1.370       .  S
O130        H134   0.992       .  S
O132        H133   0.991       .  S
C135        C136   1.410       .  A
C135        C140   1.405       .  A
C136        C137   1.411       .  A
C136        H141   1.083       .  S
C137        C138   1.410       .  A
C137        O142   1.371       .  S
C138        C139   1.405       .  A
C139        C140   1.391       .  A
C139        H143   1.084       .  S
C140        O144   1.372       .  S
O142        H146   0.992       .  S
O144        H145   0.992       .  S
C147        C148   1.404       .  A
C147        C152   1.417       .  A
C148        C149   1.409       .  A
C148        H153   1.083       .  S
C149        C150   1.411       .  A
C149        O154   1.371       .  S
C150        C151   1.400       .  A
C151        C152   1.399       .  A
C151        H373   1.084       .  S
C152        O374   1.371       .  S
O154        H158   0.992       .  S
H155        C369   1.084       .  S
O156        C370   1.371       .  S
O156        H157   0.992       .  S
C159        C160   1.409       .  A
C159       C1472   1.419       .  A
C160        C161   1.404       .  A
C160        H165   1.076       .  S
C161       C1034   1.406       .  A
C161        O166   1.371       .  S
C162       C1033   1.408       .  A
C162        C599   1.402       .  A
C163        C164   1.401       .  A
C163        C598   1.402   1_545  A
C163        H167   1.084       .  S
C164       C1467   1.412       .  A
C164        O168   1.370       .  S
O166        H170   0.992   1_655  S
O168        H169   0.992       .  S
C171        N910   1.452       .  S
C171        C608   1.407       .  A
C171       C1048   1.411       .  A
C172        C173   1.394       .  A
C172        C607   1.407       .  A
C172        H177   1.083       .  S
C173        C610   1.405       .  A
C173        O178   1.373       .  S
C174        C609   1.407       .  A
C174       C1047   1.409       .  A
C175        C176   1.408       .  A
C175       C1046   1.407   1_655  A
C175        H179   1.083       .  S
C176       C1043   1.411   1_655  A
C176        O180   1.369       .  S
O178        H182   0.992       .  S
O180        H181   0.992       .  S
C183        C184   1.410       .  A
C183        C188   1.417       .  A
C184        C185   1.408       .  A
C184        H189   1.081       .  S
C185        C186   1.409       .  A
C185        O190   1.371       .  S
C186        C187   1.398       .  A
C187        C188   1.398       .  A
C187        H191   1.084       .  S
C188        O192   1.372       .  S
O190        H194   0.992       .  S
O192        H193   0.992       .  S
C195        C196   1.404       .  A
C195        C200   1.415       .  A
C196        C197   1.400       .  A
C196        H201   1.083       .  S
C197        C198   1.413       .  A
C197        O202   1.371       .  S
C198        C199   1.405       .  A
C199        C200   1.408       .  A
C199        H203   1.083       .  S
C200        O204   1.372       .  S
O202        H206   0.992       .  S
O204        H205   0.992       .  S
C207        C208   1.404       .  A
C207        C212   1.420       .  A
C208        C209   1.406       .  A
C208        H213   1.083       .  S
C209        C210   1.409       .  A
C209        O214   1.369       .  S
C210        C211   1.396       .  A
C211        C212   1.401       .  A
C211        H215   1.084       .  S
C212        O216   1.372       .  S
O214        H218   0.986       .  S
O216        H217   0.992       .  S
N219        C223   1.362       .  A
N219        C220   1.366       .  A
N219        C401   1.453       .  S
C220        C221   1.386       .  A
C220        C416   1.497       .  S
C221        C222   1.364       .  A
C221        H224   1.081       .  S
C222        C223   1.372       .  A
C222        H225   1.079       .  S
C223        C428   1.478       .  S
Zn226       O230   1.907       .  S
Zn226      O1103   1.994       .  S
Zn226       O235   2.037       .  S
Zn226       O242   2.029       .  S
Zn227      O1102   1.934       .  S
Zn227       O668   2.004       .  S
Zn227       O234   2.103       .  S
Zn228       O666   1.925   1_545  S
Zn228       O233   2.055       .  S
Zn228      O1108   2.083       .  S
Zn228       O239   2.038       .  S
Zn229       O230   1.926       .  S
Zn229       O673   2.057       .  S
Zn229       O241   2.010       .  S
O230      Zn1099   1.941       .  S
O230       Zn664   1.928       .  S
O231      Zn1098   1.970   1_455  S
O231        C243   1.269       .  A
O232       Zn663   2.000   1_545  S
O232        C244   1.272       .  A
O233        C681   1.284   1_545  A
O234        C243   1.285       .  A
O235        C245   1.280       .  A
O236      Zn1100   2.076       .  S
O236        C244   1.283       .  A
O237       Zn665   2.026   1_545  S
O237        C246   1.278       .  A
O238       C1119   1.284   1_455  A
O239        C246   1.276       .  A
O240        C247   1.281       .  A
O241        C248   1.271       .  A
O242        C248   1.278       .  A
C243        C425   1.498       .  S
C244        C365   1.498       .  S
C245        C380   1.486       .  S
C245        O669   1.281       .  A
C246        C413   1.489       .  S
C247        C392   1.492       .  S
C247       O1110   1.285       .  A
C248        C353   1.477       .  S
N249        C253   1.365   1_554  A
N249        C250   1.365   1_554  A
C250        C251   1.374       .  A
C250        C368   1.479   1_556  S
C251        C252   1.359       .  A
C251        H254   1.077       .  S
C252        C253   1.375       .  A
C252        H255   1.078       .  S
C253        C356   1.482       .  S
N256        C260   1.370   1_655  A
N256       C1565   1.367       .  A
N256       C1261   1.452       .  S
C257       N1564   1.367       .  A
C257        C258   1.379       .  A
C257        C329   1.501       .  S
C258       C1567   1.365       .  A
C258        H261   1.076       .  S
C259       C1566   1.356   1_455  A
C259        C260   1.374       .  A
C259        H262   1.083       .  S
C260        C320   1.474       .  S
Zn263       O267   1.921       .  S
Zn263       O268   2.072       .  S
Zn263       O272   1.976       .  S
Zn263       O279   2.048       .  S
Zn264       O267   1.904       .  S
Zn264       O269   1.998       .  S
Zn264       O271   1.977       .  S
Zn264       O275   2.003       .  S
Zn265       O267   1.919       .  S
Zn265       O270   2.067       .  S
Zn265       O273   2.042       .  S
Zn265       O276   2.018       .  S
Zn266       O267   1.930       .  S
Zn266       O274   2.071       .  S
Zn266       O277   2.025       .  S
Zn266       O278   2.024       .  S
O268        C280   1.280       .  A
O269        C281   1.277       .  A
O270        C282   1.282       .  A
O271        C280   1.266       .  A
O272        C282   1.271       .  A
O273        C281   1.282       .  A
O274        C283   1.282       .  A
O275        C284   1.275       .  A
O276        C283   1.276       .  A
O277        C284   1.273       .  A
O278        C285   1.281       .  A
O279        C285   1.282       .  A
C280        C317   1.475       .  S
C281        C344   1.476       .  S
C282        C305   1.489       .  S
C283        C332   1.495       .  S
C284        C293   1.479       .  S
C285        C404   1.482       .  S
N286        C726   1.368       .  A
N286       C1159   1.369       .  A
N286        C377   1.461       .  S
C287       N1158   1.361       .  A
C287        C288   1.376       .  A
C287        C308   1.477       .  S
C288       C1597   1.365       .  A
C288        H291   1.078       .  S
C289       C1596   1.358       .  A
C289        C290   1.378   1_655  A
C289        H292   1.074       .  S
C290        N722   1.363   1_455  A
C290        C296   1.478       .  S
C293        C294   1.403       .  A
C293        C298   1.411       .  A
C294        C295   1.392       .  A
C294        H299   1.084       .  S
C295        C296   1.409       .  A
C295        O300   1.372       .  S
C296        C297   1.404       .  A
C297        C298   1.407       .  A
C297        H301   1.083       .  S
C298        O302   1.371       .  S
O300        H304   0.991   1_455  S
O302        H303   0.991       .  S
C305        C306   1.414       .  A
C305        C310   1.408       .  A
C306        C307   1.401       .  A
C306        H311   1.083       .  S
C307        C308   1.399       .  A
C307        O312   1.371       .  S
C308        C309   1.405       .  A
C309        C310   1.400       .  A
C309        H313   1.077       .  S
C310        O314   1.372       .  S
O312        H316   0.991       .  S
O314        H315   0.992       .  S
C317        C318   1.403       .  A
C317        C322   1.406       .  A
C318        C319   1.405       .  A
C318        H323   1.084       .  S
C319        C320   1.408       .  A
C319        O324   1.372       .  S
C320        C321   1.406       .  A
C321        C322   1.401       .  A
C321        H325   1.083   1_455  S
C322        O326   1.372       .  S
O324        H328   0.991       .  S
O326        H327   0.992       .  S
C329        C330   1.408       .  A
C329        C334   1.412       .  A
C330        C331   1.409       .  A
C330        H335   1.083       .  S
C331        C332   1.412       .  A
C331        O336   1.371       .  S
C332        C333   1.406       .  A
C333        C334   1.404       .  A
C333        H337   1.084       .  S
C334        O338   1.374       .  S
O336        H340   0.992       .  S
O338        H339   0.993       .  S
C341        C342   1.405       .  A
C341        C346   1.417       .  A
C342        C343   1.402       .  A
C342        H347   1.079       .  S
C343        C344   1.410       .  A
C343        O348   1.372       .  S
C344        C345   1.398       .  A
C345        C346   1.398       .  A
C345        H349   1.084       .  S
C346        O350   1.370       .  S
O348        H352   0.992       .  S
O350        H351   0.992       .  S
C353        C354   1.408       .  A
C353        C358   1.406       .  A
C354        C355   1.409       .  A
C354        H359   1.083       .  S
C355        C356   1.409       .  A
C355        O360   1.371       .  S
C356        C357   1.403       .  A
C357        C358   1.392       .  A
C357        H361   1.084       .  S
C358        O362   1.372       .  S
O360        H364   0.991   1_556  S
O362        H363   0.992       .  S
C365        C366   1.406       .  A
C365        C370   1.417   1_556  A
C366        C367   1.408       .  A
C366        H371   1.083       .  S
C367        C368   1.409   1_556  A
C367        O372   1.372       .  S
C368        C369   1.400       .  A
C369        C370   1.401       .  A
O372        H376   0.991       .  S
O374        H375   0.992       .  S
C377        C378   1.409       .  A
C377       C1690   1.423       .  A
C378        C379   1.405       .  A
C378        H383   1.076       .  S
C379       C1252   1.409   1_655  A
C379        O384   1.371       .  S
C380       C1251   1.410       .  A
C380        C817   1.402       .  A
C381        C816   1.402   1_545  A
C381        C382   1.402       .  A
C381        H385   1.084       .  S
C382       C1685   1.413       .  A
C382        O386   1.370       .  S
O384        H388   0.992   1_655  S
O386        H387   0.992       .  S
C389       N1128   1.454       .  S
C389        C826   1.408       .  A
C389       C1266   1.412       .  A
C390        C825   1.408       .  A
C390        C391   1.394       .  A
C390        H395   1.083       .  S
C391        C828   1.403   1_545  A
C391        O396   1.373       .  S
C392        C827   1.406       .  A
C392       C1265   1.410       .  A
C393       C1264   1.405       .  A
C393        C394   1.411       .  A
C393        H397   1.084       .  S
C394       C1261   1.412       .  A
C394        O398   1.371       .  S
O396        H400   0.992       .  S
O398        H399   0.992       .  S
C401        C402   1.410       .  A
C401        C406   1.417       .  A
C402        C403   1.409       .  A
C402        H407   1.082       .  S
C403        C404   1.409       .  A
C403        O408   1.371       .  S
C404        C405   1.399       .  A
C405        C406   1.398       .  A
C405        H409   1.084       .  S
C406        O410   1.372       .  S
O408        H412   0.992       .  S
O410        H411   0.992       .  S
C413        C414   1.404       .  A
C413        C418   1.414       .  A
C414        C415   1.397       .  A
C414        H419   1.084       .  S
C415        C416   1.412       .  A
C415        O420   1.371       .  S
C416        C417   1.406       .  A
C417        C418   1.409       .  A
C417        H421   1.083       .  S
C418        O422   1.372       .  S
O420        H424   0.992       .  S
O422        H423   0.992       .  S
C425        C426   1.406       .  A
C425        C430   1.423       .  A
C426        C427   1.408       .  A
C426        H431   1.083       .  S
C427        C428   1.411       .  A
C427        O432   1.370       .  S
C428        C429   1.394       .  A
C429        C430   1.399       .  A
C429        H433   1.084       .  S
C430        O434   1.372       .  S
O432        H436   0.992       .  S
O434        H435   0.992       .  S
N437        C441   1.367       .  A
N437        C438   1.365       .  A
N437        C619   1.448       .  S
C438        C439   1.368       .  A
C438        C634   1.477       .  S
C439        C440   1.355       .  A
C439        H442   1.067       .  S
C440        C441   1.373       .  A
C440        H443   1.081       .  S
C441        C646   1.475       .  S
Zn444       O448   1.913       .  S
Zn444      O1321   1.972       .  S
Zn444       O453   2.023       .  S
Zn444       O460   2.035       .  S
Zn445      O1320   1.922   1_455  S
Zn445       O452   2.062       .  S
Zn445       O674   2.042       .  S
Zn446       O451   2.028       .  S
Zn446      O1326   2.057       .  S
Zn446       O457   2.022       .  S
Zn447       O448   1.910       .  S
Zn447       O676   2.035   1_565  S
Zn447       O459   2.028       .  S
O448      Zn1317   1.922       .  S
O449      Zn1316   1.981   1_455  S
O449        C461   1.268       .  A
O450        C462   1.275       .  A
O452        C461   1.281       .  A
O453        C463   1.281       .  A
O454      Zn1318   2.056       .  S
O454        C462   1.283       .  A
O455        C464   1.279       .  A
O456       Zn663   2.054   1_554  S
O456       C1337   1.281   1_455  A
O457        C464   1.274       .  A
O458       Zn665   2.015   1_544  S
O458        C465   1.278   1_545  A
O459        C466   1.275       .  A
O460        C466   1.278       .  A
C461        C643   1.484       .  S
C462        C583   1.492       .  S
C463        C598   1.484       .  S
C464        C631   1.491       .  S
C465        C610   1.477   1_565  S
C465       O1328   1.281       .  A
C466        C571   1.486       .  S
N467        C471   1.370       .  A
N467        C468   1.366       .  A
N467        C777   1.457       .  S
C468        C469   1.377       .  A
C468        C586   1.492       .  S
C469        C470   1.366       .  A
C469        H472   1.081       .  S
C470        C471   1.388       .  A
C470        H473   1.079       .  S
C471        C574   1.512       .  S
N474        C478   1.367       .  A
N474        C911   1.369       .  A
N474       C1479   1.448       .  S
C475        N910   1.368       .  A
C475        C476   1.371       .  A
C475        C547   1.486       .  S
C476        C913   1.358       .  A
C476        H479   1.072       .  S
C477        C912   1.366       .  A
C477        C478   1.378       .  A
C477        H480   1.081       .  S
C478        C538   1.490   1_545  S
Zn481       O485   1.920       .  S
Zn481       O486   2.062       .  S
Zn481       O490   1.992       .  S
Zn481       O497   2.020       .  S
Zn482       O485   1.913       .  S
Zn482       O487   2.034       .  S
Zn482       O489   2.019       .  S
Zn482       O493   2.044       .  S
Zn483       O485   1.903       .  S
Zn483       O488   2.032       .  S
Zn483       O491   2.003       .  S
Zn483       O494   1.999       .  S
Zn484       O485   1.929       .  S
Zn484       O492   2.095       .  S
Zn484       O495   2.019       .  S
Zn484       O496   2.048       .  S
O486        C498   1.281       .  A
O487        C499   1.280       .  A
O488        C500   1.277       .  A
O489        C498   1.274       .  A
O490        C500   1.270       .  A
O491        C499   1.278       .  A
O492        C501   1.283       .  A
O493        C502   1.281       .  A
O494        C501   1.272       .  A
O495        C502   1.276       .  A
O496        C503   1.283       .  A
O497        C503   1.280       .  A
C498        C535   1.492       .  S
C499        C562   1.479       .  S
C500        C523   1.482       .  S
C501        C550   1.498       .  S
C502        C511   1.485       .  S
C503        C622   1.484       .  S
N504       C1377   1.364   1_445  A
N504        C595   1.447       .  S
C505       N1376   1.364   1_565  A
C505        C506   1.376   1_565  A
C505        C526   1.468       .  S
C506        C943   1.357       .  A
C506        H509   1.082   1_545  S
C507        C942   1.366       .  A
C507        C508   1.384       .  A
C507        H510   1.080       .  S
C508        C514   1.498   1_655  S
C511        C512   1.403       .  A
C511        C516   1.411       .  A
C512        C513   1.400       .  A
C512        H517   1.084       .  S
C513        C514   1.415       .  A
C513        O518   1.371   1_455  S
C514        C515   1.406       .  A
C515        C516   1.403       .  A
C515        H519   1.082       .  S
C516        O520   1.371       .  S
O518        H522   0.992       .  S
O520        H521   0.991       .  S
C523        C524   1.409       .  A
C523        C528   1.410       .  A
C524        C525   1.399       .  A
C524        H529   1.083       .  S
C525        C526   1.403       .  A
C525        O530   1.371       .  S
C526        C527   1.404       .  A
C527        C528   1.399       .  A
C527        H531   1.084       .  S
C528        O532   1.372       .  S
O530        H534   0.992       .  S
O532        H533   0.992       .  S
C535        C536   1.413       .  A
C535        C540   1.407       .  A
C536        C537   1.409       .  A
C536        H541   1.083       .  S
C537        C538   1.406       .  A
C537        O542   1.371       .  S
C538        C539   1.407       .  A
C539        C540   1.401       .  A
C539        H543   1.079   1_565  S
C540        O544   1.372       .  S
O542        H546   0.992       .  S
O544        H545   0.992       .  S
C547        C548   1.408       .  A
C547        C552   1.407       .  A
C548        C549   1.417       .  A
C548        H553   1.083       .  S
C549        C550   1.412       .  A
C549        O554   1.375       .  S
C550        C551   1.408       .  A
C551        C552   1.400       .  A
C551        H555   1.083       .  S
C552        O556   1.373       .  S
O554        H558   0.992       .  S
O556        H557   0.992       .  S
C559        N685   1.447       .  S
C559        C560   1.408       .  A
C559        C564   1.413       .  A
C560        C561   1.407       .  A
C560        H565   1.081       .  S
C561        C562   1.410       .  A
C561        O566   1.371       .  S
C562        C563   1.401       .  A
C563        C564   1.390       .  A
C563        H567   1.084       .  S
C564        O568   1.371       .  S
O566        H570   0.992       .  S
O568        H569   0.991       .  S
C571        C572   1.402       .  A
C571        C576   1.407       .  A
C572        C573   1.409       .  A
C572        H577   1.083       .  S
C573        C574   1.419       .  A
C573        O578   1.370       .  S
C574        C575   1.411       .  A
C575        C576   1.399       .  A
C575        H579   1.081       .  S
C576        O580   1.372       .  S
O578        H582   0.992       .  S
O580        H581   0.992       .  S
C583        C584   1.404       .  A
C583        C588   1.416       .  A
C584        C585   1.405       .  A
C584        H589   1.083       .  S
C585        C586   1.413       .  A
C585        O590   1.371       .  S
C586        C587   1.403       .  A
C587        C588   1.402       .  A
C587        H809   1.084       .  S
C588        O810   1.372       .  S
O590        H594   0.992       .  S
H591        C805   1.084       .  S
O592        C806   1.372       .  S
O592        H593   0.991       .  S
C595        C596   1.405   1_545  A
C595       C1036   1.415       .  A
C596        C597   1.406       .  A
C596        H601   1.082       .  S
C597       C1470   1.413   1_565  A
C597        O602   1.371       .  S
C598       C1469   1.412       .  A
C599        C600   1.400       .  A
C599        H603   1.084       .  S
C600       C1031   1.417       .  A
C600        O604   1.371       .  S
O602        H606   0.992       .  S
O604        H605   0.992       .  S
C607       N1346   1.447       .  S
C607       C1484   1.410   1_545  A
C608        C609   1.401       .  A
C608        H613   1.082       .  S
C609        O614   1.372       .  S
C610       C1483   1.406   1_545  A
C611       C1482   1.407   1_665  A
C611        C612   1.415   1_655  A
C611        H615   1.083       .  S
C612       C1479   1.410   1_565  A
C612        O616   1.372   1_455  S
O614        H618   0.992       .  S
O616        H617   0.992   1_655  S
C619        C620   1.405       .  A
C619        C624   1.413       .  A
C620        C621   1.402       .  A
C620        H625   1.083       .  S
C621        C622   1.411       .  A
C621        O626   1.372       .  S
C622        C623   1.402       .  A
C623        C624   1.405       .  A
C623        H627   1.084       .  S
C624        O628   1.370       .  S
O626        H630   0.992       .  S
O628        H629   0.992       .  S
C631        C632   1.404       .  A
C631        C636   1.415       .  A
C632        C633   1.399       .  A
C632        H637   1.083       .  S
C633        C634   1.410       .  A
C633        O638   1.373       .  S
C634        C635   1.403       .  A
C635        C636   1.406       .  A
C635        H639   1.084       .  S
C636        O640   1.371       .  S
O638        H642   0.991       .  S
O640        H641   0.992       .  S
C643        C644   1.401       .  A
C643        C648   1.416       .  A
C644        C645   1.400       .  A
C644        H649   1.084       .  S
C645        C646   1.410       .  A
C645        O650   1.372       .  S
C646        C647   1.399       .  A
C647        C648   1.403       .  A
C647        H651   1.084       .  S
C648        O652   1.372       .  S
O650        H654   0.992       .  S
O652        H653   0.992       .  S
N655        C659   1.370       .  A
N655        C656   1.370       .  A
N655        C837   1.451       .  S
C656        C657   1.373       .  A
C656        C852   1.483       .  S
C657        C658   1.357       .  A
C657        H660   1.075       .  S
C658        C659   1.372       .  A
C658        H661   1.077       .  S
C659        C864   1.485       .  S
Zn662       O666   1.895       .  S
Zn662      O1539   1.984       .  S
Zn662       O671   2.011       .  S
Zn662       O678   2.024       .  S
Zn663      O1538   1.924   1_455  S
Zn663       O670   2.068       .  S
Zn664       O669   2.038       .  S
Zn664      O1544   2.066       .  S
Zn664       O675   2.029       .  S
Zn665       O666   1.897       .  S
Zn665       O677   2.004       .  S
O666      Zn1535   1.916       .  S
O667      Zn1534   2.005   1_455  S
O667        C679   1.271       .  A
O668        C680   1.274       .  A
O670        C679   1.282       .  A
O671        C681   1.280       .  A
O672      Zn1536   2.065       .  S
O672        C680   1.283       .  A
O673        C682   1.280       .  A
O674       C1555   1.280   1_455  A
O675        C682   1.275       .  A
O676        C683   1.280   1_545  A
O677        C684   1.273       .  A
O678        C684   1.278       .  A
C679        C861   1.480       .  S
C680        C801   1.496       .  S
C681        C816   1.483       .  S
C682        C849   1.502       .  S
C683        C828   1.478       .  S
C683       O1546   1.280       .  A
C684        C789   1.474       .  S
N685        C689   1.363       .  A
N685        C686   1.358       .  A
C686        C687   1.375   1_554  A
C686        C804   1.477       .  S
C687        C688   1.366       .  A
C687        H690   1.079       .  S
C688        C689   1.386   1_556  A
C688        H691   1.081       .  S
C689        C792   1.499   1_554  S
N692        C696   1.365       .  A
N692       C1129   1.365       .  A
N692       C1697   1.444       .  S
C693       N1128   1.367       .  A
C693        C694   1.372       .  A
C693        C765   1.484       .  S
C694       C1131   1.357       .  A
C694        H697   1.071       .  S
C695       C1130   1.363       .  A
C695        C696   1.378       .  A
C695        H698   1.081       .  S
C696        C756   1.486   1_545  S
Zn699       O703   1.918       .  S
Zn699       O704   2.072       .  S
Zn699       O708   2.001       .  S
Zn699       O715   2.026       .  S
Zn700       O703   1.907       .  S
Zn700       O705   2.019       .  S
Zn700       O707   2.015       .  S
Zn700       O711   2.037       .  S
Zn701       O703   1.907       .  S
Zn701       O706   2.032       .  S
Zn701       O709   2.011       .  S
Zn701       O712   1.997       .  S
Zn702       O703   1.934       .  S
Zn702       O710   2.092       .  S
Zn702       O713   2.015       .  S
Zn702       O714   2.055       .  S
O704        C716   1.282       .  A
O705        C717   1.279       .  A
O706        C718   1.277       .  A
O707        C716   1.273       .  A
O708        C718   1.272       .  A
O709        C717   1.278       .  A
O710        C719   1.283       .  A
O711        C720   1.279       .  A
O712        C719   1.272       .  A
O713        C720   1.275       .  A
O714        C721   1.283       .  A
O715        C721   1.281       .  A
C716        C753   1.493       .  S
C717        C780   1.482       .  S
C718        C741   1.483       .  S
C719        C768   1.496       .  S
C720        C729   1.481       .  S
C721        C840   1.488       .  S
N722       C1595   1.363       .  A
N722        C813   1.455   1_655  S
C723       N1594   1.363   1_565  A
C723        C724   1.376       .  A
C723        C744   1.468       .  S
C724       C1161   1.358   1_565  A
C724        H727   1.083       .  S
C725       C1160   1.364       .  A
C725        C726   1.381       .  A
C725        H728   1.078       .  S
C726        C732   1.496       .  S
C729        C730   1.403       .  A
C729        C734   1.409       .  A
C730        C731   1.400   1_455  A
C730        H735   1.084       .  S
C731        C732   1.415       .  A
C731        O736   1.371       .  S
C732        C733   1.406   1_655  A
C733        C734   1.403       .  A
C733        H737   1.083       .  S
C734        O738   1.371       .  S
O736        H740   0.992       .  S
O738        H739   0.991       .  S
C741        C742   1.409       .  A
C741        C746   1.410       .  A
C742        C743   1.400       .  A
C742        H747   1.083       .  S
C743        C744   1.404       .  A
C743        O748   1.371       .  S
C744        C745   1.403       .  A
C745        C746   1.399       .  A
C745        H749   1.084       .  S
C746        O750   1.372       .  S
O748        H752   0.992       .  S
O750        H751   0.992       .  S
C753        C754   1.413       .  A
C753        C758   1.407       .  A
C754        C755   1.408       .  A
C754        H759   1.083       .  S
C755        C756   1.406       .  A
C755        O760   1.371       .  S
C756        C757   1.408       .  A
C757        C758   1.402       .  A
C757        H761   1.084       .  S
C758        O762   1.372       .  S
O760        H764   0.992       .  S
O762        H763   0.992       .  S
C765        C766   1.407       .  A
C765        C770   1.407       .  A
C766        C767   1.415       .  A
C766        H771   1.083       .  S
C767        C768   1.412       .  A
C767        O772   1.373       .  S
C768        C769   1.408       .  A
C769        C770   1.399       .  A
C769        H773   1.083       .  S
C770        O774   1.373       .  S
O772        H776   0.991       .  S
O774        H775   0.992       .  S
C777        C778   1.409       .  A
C777        C782   1.418       .  A
C778        C779   1.400       .  A
C778        H783   1.072       .  S
C779        C780   1.407       .  A
C779        O784   1.372       .  S
C780        C781   1.402       .  A
C781        C782   1.396       .  A
C781        H785   1.084       .  S
C782        O786   1.371       .  S
O784        H788   0.992       .  S
O786        H787   0.992       .  S
C789        C790   1.401       .  A
C789        C794   1.405       .  A
C790        C791   1.406       .  A
C790        H795   1.084       .  S
C791        C792   1.417       .  A
C791        O796   1.370   1_556  S
C792        C793   1.408       .  A
C793        C794   1.396       .  A
C793        H797   1.082       .  S
C794        O798   1.372       .  S
O796        H800   0.992       .  S
O798        H799   0.992       .  S
C801        C802   1.407       .  A
C801        C806   1.420   1_556  A
C802        C803   1.404       .  A
C802        H807   1.083       .  S
C803        C804   1.409   1_556  A
C803        O808   1.373       .  S
C804        C805   1.398       .  A
C805        C806   1.401       .  A
O808        H812   0.991       .  S
O810        H811   0.992       .  S
C813        C814   1.409   1_545  A
C813       C1254   1.416       .  A
C814        C815   1.407       .  A
C814        H819   1.081       .  S
C815       C1688   1.411       .  A
C815        O820   1.371       .  S
C816       C1687   1.411       .  A
C817        C818   1.400       .  A
C817        H821   1.084       .  S
C818       C1249   1.417       .  A
C818        O822   1.371       .  S
O820        H824   0.991       .  S
O822        H823   0.992       .  S
C825       N1564   1.448       .  S
C825       C1702   1.409   1_545  A
C826        C827   1.401       .  A
C826        H831   1.083       .  S
C827        O832   1.372       .  S
C828       C1701   1.408       .  A
C829       C1700   1.408       .  A
C829        C830   1.413       .  A
C829        H833   1.083       .  S
C830       C1697   1.408   1_665  A
C830        O834   1.370       .  S
O832        H836   0.992       .  S
O834        H835   0.991       .  S
C837        C838   1.406       .  A
C837        C842   1.411       .  A
C838        C839   1.397       .  A
C838        H843   1.083       .  S
C839        C840   1.409       .  A
C839        O844   1.372       .  S
C840        C841   1.407       .  A
C841        C842   1.413       .  A
C841        H845   1.083       .  S
C842        O846   1.369       .  S
O844        H848   0.992       .  S
O846        H847   0.992       .  S
C849        C850   1.408       .  A
C849        C854   1.416       .  A
C850        C851   1.409       .  A
C850        H855   1.083       .  S
C851        C852   1.410       .  A
C851        O856   1.373       .  S
C852        C853   1.405       .  A
C853        C854   1.405       .  A
C853        H857   1.084       .  S
C854        O858   1.372       .  S
O856        H860   0.992       .  S
O858        H859   0.992       .  S
C861        C862   1.399       .  A
C861        C866   1.412       .  A
C862        C863   1.400       .  A
C862        H867   1.084       .  S
C863        C864   1.412       .  A
C863        O868   1.374       .  S
C864        C865   1.404       .  A
C865        C866   1.409       .  A
C865        H869   1.084       .  S
C866        O870   1.371       .  S
O868        H872   0.992       .  S
O870        H871   0.992       .  S
N873        C877   1.364       .  A
N873        C874   1.368       .  A
N873       C1055   1.451       .  S
C874        C875   1.385       .  A
C874       C1070   1.498       .  S
C875        C876   1.364       .  A
C875        H878   1.081       .  S
C876        C877   1.372       .  A
C876        H879   1.079       .  S
C877       C1082   1.483       .  S
Zn880       O884   1.901   1_655  S
Zn880       O889   2.024       .  S
Zn880       O896   2.027       .  S
Zn881      O1322   2.024       .  S
Zn881       O888   2.097       .  S
Zn881      O1110   2.087       .  S
Zn882      O1320   1.928   1_445  S
Zn882       O887   2.044       .  S
Zn882       O893   2.030   1_455  S
Zn883       O884   1.911   1_655  S
Zn883      O1327   2.033       .  S
Zn883      O1112   2.031       .  S
Zn883       O895   2.008       .  S
O884      Zn1318   1.922       .  S
O885        C897   1.271       .  A
O886      Zn1317   1.992   1_545  S
O886        C898   1.271       .  A
O887       C1335   1.283   1_545  A
O888        C897   1.286       .  A
O889        C899   1.279   1_655  A
O890        C898   1.284       .  A
O891      Zn1319   2.050   1_545  S
O891        C900   1.281       .  A
O892      Zn1099   2.089   1_554  S
O893        C900   1.276       .  A
O894      Zn1101   2.033   1_554  S
O894        C901   1.280   1_655  A
O895        C902   1.271       .  A
O896        C902   1.277       .  A
C897       C1079   1.496       .  S
C898       C1019   1.496       .  S
C899       C1034   1.479   1_455  S
C899       O1323   1.279       .  A
C900       C1067   1.493       .  S
C901       C1046   1.492       .  S
C902       C1007   1.477       .  S
N903        C907   1.367       .  A
N903        C904   1.365       .  A
N903       C1213   1.451       .  S
C904        C905   1.374       .  A
C904       C1022   1.479       .  S
C905        C906   1.359       .  A
C905        H908   1.078       .  S
C906        C907   1.378       .  A
C906        H909   1.079       .  S
C907       C1010   1.484       .  S
N910        C914   1.372       .  A
C911        C912   1.385       .  A
C911        C983   1.503   1_455  S
C912        H915   1.079       .  S
C913        C914   1.381       .  A
C913        H916   1.082       .  S
C914        C974   1.489       .  S
Zn917       O921   1.926       .  S
Zn917       O922   2.069       .  S
Zn917       O926   1.986       .  S
Zn917       O933   2.037       .  S
Zn918       O921   1.908       .  S
Zn918       O923   2.010       .  S
Zn918       O925   2.007       .  S
Zn918       O929   2.039       .  S
Zn919       O921   1.931       .  S
Zn919       O924   2.086       .  S
Zn919       O927   2.050       .  S
Zn919       O930   2.034       .  S
Zn920       O921   1.938       .  S
Zn920       O928   2.073       .  S
Zn920       O931   2.018       .  S
Zn920       O932   2.029       .  S
O922        C934   1.280       .  A
O923        C935   1.279       .  A
O924        C936   1.285       .  A
O925        C934   1.270       .  A
O926        C936   1.272       .  A
O927        C935   1.283       .  A
O928        C937   1.282       .  A
O929        C938   1.279       .  A
O930        C937   1.277       .  A
O931        C938   1.273       .  A
O932        C939   1.281       .  A
O933        C939   1.280       .  A
C934        C971   1.486       .  S
C935        C998   1.481       .  S
C936        C959   1.494       .  S
C937        C986   1.500       .  S
C938        C947   1.488       .  S
C939       C1058   1.480       .  S
N940       C1380   1.365       .  A
N940       C1031   1.455       .  S
C941        C942   1.378       .  A
C941        C962   1.488       .  S
C942        H945   1.079       .  S
C943        C944   1.372       .  A
C943        H946   1.067       .  S
C944       N1376   1.361       .  A
C944        C950   1.477       .  S
C947        C948   1.404       .  A
C947        C952   1.414       .  A
C948        C949   1.398       .  A
C948        H953   1.084       .  S
C949        C950   1.408       .  A
C949        O954   1.372       .  S
C950        C951   1.404       .  A
C951        C952   1.407       .  A
C951        H955   1.084       .  S
C952        O956   1.372       .  S
O954        H958   0.992       .  S
O956        H957   0.992       .  S
C959        C960   1.412       .  A
C959        C964   1.409       .  A
C960        C961   1.400       .  A
C960        H965   1.083       .  S
C961        C962   1.404       .  A
C961        O966   1.372       .  S
C962        C963   1.406       .  A
C963        C964   1.405       .  A
C963        H967   1.075       .  S
C964        O968   1.372       .  S
O966        H970   0.992       .  S
O968        H969   0.992       .  S
C971        C972   1.410       .  A
C971        C976   1.403       .  A
C972        C973   1.409       .  A
C972        H977   1.084       .  S
C973        C974   1.407       .  A
C973        O978   1.371       .  S
C974        C975   1.411       .  A
C975        C976   1.401       .  A
C975        H979   1.084       .  S
C976        O980   1.372       .  S
O978        H982   0.992       .  S
O980        H981   0.992       .  S
C983        C984   1.408       .  A
C983        C988   1.413       .  A
C984        C985   1.411       .  A
C984        H989   1.083       .  S
C985        C986   1.414       .  A
C985        O990   1.371       .  S
C986        C987   1.407       .  A
C987        C988   1.406       .  A
C987        H991   1.083       .  S
C988        O992   1.374   1_655  S
O990        H994   0.992       .  S
O992        H993   0.993       .  S
C995       N1121   1.451       .  S
C995        C996   1.405       .  A
C995       C1000   1.417       .  A
C996        C997   1.402       .  A
C996       H1001   1.077       .  S
C997        C998   1.409       .  A
C997       O1002   1.372       .  S
C998        C999   1.401       .  A
C999       C1000   1.402       .  A
C999       H1003   1.084       .  S
C1000      O1004   1.371       .  S
O1002      H1006   0.992       .  S
O1004      H1005   0.991       .  S
C1007      C1008   1.407       .  A
C1007      C1012   1.407       .  A
C1008      C1009   1.408       .  A
C1008      H1013   1.083       .  S
C1009      C1010   1.408       .  A
C1009      O1014   1.371       .  S
C1010      C1011   1.405       .  A
C1011      C1012   1.394       .  A
C1011      H1015   1.084       .  S
C1012      O1016   1.373       .  S
O1014      H1018   0.992       .  S
O1016      H1017   0.992       .  S
C1019      C1020   1.405       .  A
C1019      C1024   1.417       .  A
C1020      C1021   1.409       .  A
C1020      H1025   1.083       .  S
C1021      C1022   1.410       .  A
C1021      O1026   1.373       .  S
C1022      C1023   1.400       .  A
C1023      C1024   1.399       .  A
C1023      H1245   1.084       .  S
C1024      O1246   1.371       .  S
O1026      H1030   0.992       .  S
H1027      C1241   1.084       .  S
O1028      C1242   1.372       .  S
O1028      H1029   0.992       .  S
C1031      C1032   1.410       .  A
C1032      C1033   1.406       .  A
C1032      H1037   1.081       .  S
C1033      O1038   1.371       .  S
C1034      C1471   1.400       .  A
C1035      C1470   1.400       .  A
C1035      C1036   1.397       .  A
C1035      H1039   1.084   1_455  S
C1036      O1040   1.370   1_455  S
O1038      H1042   0.992       .  S
O1040      H1041   0.992       .  S
C1043      C1480   1.407       .  A
C1044      C1479   1.406       .  A
C1044      C1045   1.398       .  A
C1044      H1049   1.083       .  S
C1045      C1482   1.405       .  A
C1045      O1050   1.372       .  S
C1046      C1481   1.409       .  A
C1047      C1048   1.417       .  A
C1047      H1051   1.083       .  S
C1048      O1052   1.372       .  S
O1050      H1054   0.992       .  S
O1052      H1053   0.992       .  S
C1055      C1056   1.408       .  A
C1055      C1060   1.416       .  A
C1056      C1057   1.408       .  A
C1056      H1061   1.081       .  S
C1057      C1058   1.408       .  A
C1057      O1062   1.371       .  S
C1058      C1059   1.399       .  A
C1059      C1060   1.399       .  A
C1059      H1063   1.084       .  S
C1060      O1064   1.372       .  S
O1062      H1066   0.992       .  S
O1064      H1065   0.992       .  S
C1067      C1068   1.403       .  A
C1067      C1072   1.415       .  A
C1068      C1069   1.400       .  A
C1068      H1073   1.084       .  S
C1069      C1070   1.414       .  A
C1069      O1074   1.371       .  S
C1070      C1071   1.405       .  A
C1071      C1072   1.409       .  A
C1071      H1075   1.083       .  S
C1072      O1076   1.372       .  S
O1074      H1078   0.992       .  S
O1076      H1077   0.992       .  S
C1079      C1080   1.406       .  A
C1079      C1084   1.419       .  A
C1080      C1081   1.409       .  A
C1080      H1085   1.083       .  S
C1081      C1082   1.411       .  A
C1081      O1086   1.371       .  S
C1082      C1083   1.399       .  A
C1083      C1084   1.400       .  A
C1083      H1087   1.084       .  S
C1084      O1088   1.372       .  S
O1086      H1090   0.992       .  S
O1088      H1089   0.992       .  S
N1091      C1095   1.365       .  A
N1091      C1092   1.368       .  A
N1091      C1273   1.451       .  S
C1092      C1093   1.384       .  A
C1092      C1288   1.499       .  S
C1093      C1094   1.365       .  A
C1093      H1096   1.081       .  S
C1094      C1095   1.371       .  A
C1094      H1097   1.077       .  S
C1095      C1300   1.486       .  S
Zn1098     O1102   1.906   1_655  S
Zn1098     O1107   2.022       .  S
Zn1098     O1114   2.019       .  S
Zn1099     O1540   2.018       .  S
Zn1099     O1106   2.106       .  S
Zn1100     O1538   1.931   1_445  S
Zn1100     O1105   2.031       .  S
Zn1100     O1111   2.031   1_455  S
Zn1101     O1102   1.924   1_655  S
Zn1101     O1545   2.030       .  S
Zn1101     O1113   1.998       .  S
O1102     Zn1536   1.934       .  S
O1103      C1115   1.272       .  A
O1104     Zn1535   1.969   1_545  S
O1104      C1116   1.269       .  A
O1105      C1553   1.282   1_545  A
O1106      C1115   1.286       .  A
O1107      C1117   1.278   1_655  A
O1108      C1116   1.285       .  A
O1109     Zn1537   2.052   1_545  S
O1109      C1118   1.281       .  A
O1111      C1118   1.275       .  A
O1112      C1119   1.280       .  A
O1113      C1120   1.269       .  A
O1114      C1120   1.276       .  A
C1115      C1297   1.500       .  S
C1116      C1237   1.489       .  S
C1117      C1252   1.488       .  S
C1117      O1541   1.281       .  A
C1118      C1285   1.494       .  S
C1119      C1264   1.488       .  S
C1120      C1225   1.472       .  S
N1121      C1125   1.364   1_554  A
N1121      C1122   1.363   1_554  A
C1122      C1123   1.374       .  A
C1122      C1240   1.474   1_556  S
C1123      C1124   1.359       .  A
C1123      H1126   1.078       .  S
C1124      C1125   1.377       .  A
C1124      H1127   1.078       .  S
C1125      C1228   1.478       .  S
N1128      C1132   1.371       .  A
C1129      C1130   1.382       .  A
C1129      C1201   1.494   1_455  S
C1130      H1133   1.078       .  S
C1131      C1132   1.380       .  A
C1131      H1134   1.083       .  S
C1132      C1192   1.482       .  S
Zn1135     O1139   1.926       .  S
Zn1135     O1140   2.071       .  S
Zn1135     O1144   1.995       .  S
Zn1135     O1151   2.043       .  S
Zn1136     O1139   1.909       .  S
Zn1136     O1141   2.017       .  S
Zn1136     O1143   1.982       .  S
Zn1136     O1147   2.034       .  S
Zn1137     O1139   1.927       .  S
Zn1137     O1142   2.091       .  S
Zn1137     O1145   2.052       .  S
Zn1137     O1148   2.028       .  S
Zn1138     O1139   1.934       .  S
Zn1138     O1146   2.057       .  S
Zn1138     O1149   2.011       .  S
Zn1138     O1150   2.024       .  S
O1140      C1152   1.281       .  A
O1141      C1153   1.280       .  A
O1142      C1154   1.284       .  A
O1143      C1152   1.267       .  A
O1144      C1154   1.273       .  A
O1145      C1153   1.283       .  A
O1146      C1155   1.280       .  A
O1147      C1156   1.279       .  A
O1148      C1155   1.277       .  A
O1149      C1156   1.271       .  A
O1150      C1157   1.280       .  A
O1151      C1157   1.281       .  A
C1152      C1189   1.478       .  S
C1153      C1216   1.483       .  S
C1154      C1177   1.497       .  S
C1155      C1204   1.494       .  S
C1156      C1165   1.486       .  S
C1157      C1276   1.481       .  S
N1158      C1598   1.365       .  A
N1158      C1249   1.455       .  S
C1159      C1160   1.380       .  A
C1159      C1180   1.493       .  S
C1160      H1163   1.081       .  S
C1161      C1162   1.372       .  A
C1161      H1164   1.067       .  S
C1162      N1594   1.360       .  A
C1162      C1168   1.475       .  S
C1165      C1166   1.404       .  A
C1165      C1170   1.414       .  A
C1166      C1167   1.395       .  A
C1166      H1171   1.084       .  S
C1167      C1168   1.407       .  A
C1167      O1172   1.372       .  S
C1168      C1169   1.403       .  A
C1169      C1170   1.407       .  A
C1169      H1173   1.084       .  S
C1170      O1174   1.372       .  S
O1172      H1176   0.991       .  S
O1174      H1175   0.992       .  S
C1177      C1178   1.411       .  A
C1177      C1182   1.411       .  A
C1178      C1179   1.400       .  A
C1178      H1183   1.083       .  S
C1179      C1180   1.406       .  A
C1179      O1184   1.372       .  S
C1180      C1181   1.407       .  A
C1181      C1182   1.409       .  A
C1181      H1185   1.076       .  S
C1182      O1186   1.371       .  S
O1184      H1188   0.992       .  S
O1186      H1187   0.992       .  S
C1189      C1190   1.409       .  A
C1189      C1194   1.402       .  A
C1190      C1191   1.405       .  A
C1190      H1195   1.084       .  S
C1191      C1192   1.405       .  A
C1191      O1196   1.371       .  S
C1192      C1193   1.411       .  A
C1193      C1194   1.400       .  A
C1193      H1197   1.083       .  S
C1194      O1198   1.372       .  S
O1196      H1200   0.992       .  S
O1198      H1199   0.992       .  S
C1201      C1202   1.407       .  A
C1201      C1206   1.411       .  A
C1202      C1203   1.409       .  A
C1202      H1207   1.083       .  S
C1203      C1204   1.414       .  A
C1203      O1208   1.372       .  S
C1204      C1205   1.405       .  A
C1205      C1206   1.403       .  A
C1205      H1209   1.083       .  S
C1206      O1210   1.374   1_655  S
O1208      H1212   0.992       .  S
O1210      H1211   0.993       .  S
C1213      C1214   1.406       .  A
C1213      C1218   1.417       .  A
C1214      C1215   1.405       .  A
C1214      H1219   1.079       .  S
C1215      C1216   1.410       .  A
C1215      O1220   1.372       .  S
C1216      C1217   1.400       .  A
C1217      C1218   1.401       .  A
C1217      H1221   1.084       .  S
C1218      O1222   1.371       .  S
O1220      H1224   0.992       .  S
O1222      H1223   0.991       .  S
C1225      C1226   1.399       .  A
C1225      C1230   1.411       .  A
C1226      C1227   1.391       .  A
C1226      H1231   1.084       .  S
C1227      C1228   1.410       .  A
C1227      O1232   1.372       .  S
C1228      C1229   1.404       .  A
C1229      C1230   1.406       .  A
C1229      H1233   1.083       .  S
C1230      O1234   1.371       .  S
O1232      H1236   0.991       .  S
O1234      H1235   0.992   1_556  S
C1237      C1238   1.402       .  A
C1237      C1242   1.416   1_556  A
C1238      C1239   1.405       .  A
C1238      H1243   1.083       .  S
C1239      C1240   1.410   1_556  A
C1239      O1244   1.373       .  S
C1240      C1241   1.399       .  A
C1241      C1242   1.397       .  A
O1244      H1248   0.992       .  S
O1246      H1247   0.992       .  S
C1249      C1250   1.409       .  A
C1250      C1251   1.408       .  A
C1250      H1255   1.081       .  S
C1251      O1256   1.371       .  S
C1252      C1689   1.400       .  A
C1253      C1688   1.404   1_545  A
C1253      C1254   1.401       .  A
C1253      H1257   1.084       .  S
C1254      O1258   1.370   1_455  S
O1256      H1260   0.992       .  S
O1258      H1259   0.992       .  S
C1261      C1698   1.406       .  A
C1262      C1697   1.405       .  A
C1262      C1263   1.396       .  A
C1262      H1267   1.083       .  S
C1263      C1700   1.405   1_445  A
C1263      O1268   1.372       .  S
C1264      C1699   1.408       .  A
C1265      C1266   1.418       .  A
C1265      H1269   1.083       .  S
C1266      O1270   1.372       .  S
O1268      H1272   0.992       .  S
O1270      H1271   0.992       .  S
C1273      C1274   1.408       .  A
C1273      C1278   1.417       .  A
C1274      C1275   1.407       .  A
C1274      H1279   1.082       .  S
C1275      C1276   1.409       .  A
C1275      O1280   1.371       .  S
C1276      C1277   1.399       .  A
C1277      C1278   1.399       .  A
C1277      H1281   1.084       .  S
C1278      O1282   1.372       .  S
O1280      H1284   0.992       .  S
O1282      H1283   0.992       .  S
C1285      C1286   1.404       .  A
C1285      C1290   1.416       .  A
C1286      C1287   1.400       .  A
C1286      H1291   1.084       .  S
C1287      C1288   1.413       .  A
C1287      O1292   1.371       .  S
C1288      C1289   1.405       .  A
C1289      C1290   1.410       .  A
C1289      H1293   1.083       .  S
C1290      O1294   1.372       .  S
O1292      H1296   0.992       .  S
O1294      H1295   0.992       .  S
C1297      C1298   1.408       .  A
C1297      C1302   1.418       .  A
C1298      C1299   1.412       .  A
C1298      H1303   1.083       .  S
C1299      C1300   1.413       .  A
C1299      O1304   1.371       .  S
C1300      C1301   1.399       .  A
C1301      C1302   1.402       .  A
C1301      H1305   1.084       .  S
C1302      O1306   1.372       .  S
O1304      H1308   0.992       .  S
O1306      H1307   0.991       .  S
N1309      C1313   1.365       .  A
N1309      C1310   1.364       .  A
N1309      C1491   1.447       .  S
C1310      C1311   1.369       .  A
C1310      C1506   1.477       .  S
C1311      C1312   1.356       .  A
C1311      H1314   1.068       .  S
C1312      C1313   1.375       .  A
C1312      H1315   1.082       .  S
C1313      C1518   1.472       .  S
Zn1316     O1320   1.917       .  S
Zn1316     O1325   2.020       .  S
Zn1316     O1332   2.037       .  S
Zn1317     O1324   2.056       .  S
Zn1317     O1546   2.044       .  S
Zn1318     O1323   2.023       .  S
Zn1318     O1329   2.035   1_455  S
Zn1319     O1320   1.913       .  S
Zn1319     O1548   2.041   1_565  S
Zn1319     O1331   2.018       .  S
O1321      C1333   1.267       .  A
O1322      C1334   1.277       .  A
O1324      C1333   1.280       .  A
O1325      C1335   1.280   1_655  A
O1326      C1334   1.282       .  A
O1327      C1336   1.279       .  A
O1328     Zn1535   2.051   1_554  S
O1329      C1336   1.276       .  A
O1330     Zn1537   2.035   1_544  S
O1330      C1337   1.279   1_545  A
O1331      C1338   1.275       .  A
O1332      C1338   1.279       .  A
C1333      C1515   1.479       .  S
C1334      C1455   1.497       .  S
C1335      C1470   1.483   1_565  S
C1336      C1503   1.494       .  S
C1337      C1482   1.482   1_665  S
C1338      C1443   1.485       .  S
N1339      C1343   1.370       .  A
N1339      C1340   1.365       .  A
N1339      C1649   1.455       .  S
C1340      C1341   1.377       .  A
C1340      C1458   1.490       .  S
C1341      C1342   1.364       .  A
C1341      H1344   1.082       .  S
C1342      C1343   1.388       .  A
C1342      H1345   1.079       .  S
C1343      C1446   1.510       .  S
N1346      C1350   1.368       .  A
C1347      C1348   1.371       .  A
C1347      C1419   1.479       .  S
C1348      H1351   1.070       .  S
C1349      C1350   1.381       .  A
C1349      H1352   1.082       .  S
C1350      C1410   1.495   1_545  S
Zn1353     O1357   1.915       .  S
Zn1353     O1358   2.057       .  S
Zn1353     O1362   1.983       .  S
Zn1353     O1369   2.028       .  S
Zn1354     O1357   1.911       .  S
Zn1354     O1359   2.014       .  S
Zn1354     O1361   2.031       .  S
Zn1354     O1365   2.034       .  S
Zn1355     O1357   1.922       .  S
Zn1355     O1360   2.049       .  S
Zn1355     O1363   2.034       .  S
Zn1355     O1366   2.018       .  S
Zn1356     O1357   1.929       .  S
Zn1356     O1364   2.068       .  S
Zn1356     O1367   2.004       .  S
Zn1356     O1368   2.042       .  S
O1358      C1370   1.281       .  A
O1359      C1371   1.277       .  A
O1360      C1372   1.280       .  A
O1361      C1370   1.275       .  A
O1362      C1372   1.271       .  A
O1363      C1371   1.279       .  A
O1364      C1373   1.281       .  A
O1365      C1374   1.279       .  A
O1366      C1373   1.274       .  A
O1367      C1374   1.273       .  A
O1368      C1375   1.281       .  A
O1369      C1375   1.280       .  A
C1370      C1407   1.496       .  S
C1371      C1434   1.467       .  S
C1372      C1395   1.488       .  S
C1373      C1422   1.494       .  S
C1374      C1383   1.481       .  S
C1375      C1494   1.484       .  S
N1376      C1467   1.447       .  S
C1377      C1378   1.376   1_565  A
C1377      C1398   1.469       .  S
C1378      H1381   1.082       .  S
C1379      C1380   1.387       .  A
C1379      H1382   1.080       .  S
C1380      C1386   1.493       .  S
C1383      C1384   1.402       .  A
C1383      C1388   1.412       .  A
C1384      C1385   1.397       .  A
C1384      H1389   1.084       .  S
C1385      C1386   1.414       .  A
C1385      O1390   1.371       .  S
C1386      C1387   1.407       .  A
C1387      C1388   1.402       .  A
C1387      H1391   1.082       .  S
C1388      O1392   1.372       .  S
O1390      H1394   0.991       .  S
O1392      H1393   0.992       .  S
C1395      C1396   1.413       .  A
C1395      C1400   1.410       .  A
C1396      C1397   1.400       .  A
C1396      H1401   1.083       .  S
C1397      C1398   1.401       .  A
C1397      O1402   1.371       .  S
C1398      C1399   1.404       .  A
C1399      C1400   1.399       .  A
C1399      H1403   1.084       .  S
C1400      O1404   1.372       .  S
O1402      H1406   0.991       .  S
O1404      H1405   0.992       .  S
C1407      C1408   1.414       .  A
C1407      C1412   1.408       .  A
C1408      C1409   1.412       .  A
C1408      H1413   1.083       .  S
C1409      C1410   1.408       .  A
C1409      O1414   1.371       .  S
C1410      C1411   1.405       .  A
C1411      C1412   1.399       .  A
C1411      H1415   1.076   1_565  S
C1412      O1416   1.372       .  S
O1414      H1418   0.992       .  S
O1416      H1417   0.992       .  S
C1419      C1420   1.407       .  A
C1419      C1424   1.408       .  A
C1420      C1421   1.410       .  A
C1420      H1425   1.084       .  S
C1421      C1422   1.411       .  A
C1421      O1426   1.375       .  S
C1422      C1423   1.408       .  A
C1423      C1424   1.403       .  A
C1423      H1427   1.083       .  S
C1424      O1428   1.373       .  S
O1426      H1430   0.992       .  S
O1428      H1429   0.993   1_655  S
C1431      N1557   1.441       .  S
C1431      C1432   1.405       .  A
C1431      C1436   1.412       .  A
C1432      C1433   1.407       .  A
C1432      H1437   1.083       .  S
C1433      C1434   1.407       .  A
C1433      O1438   1.371       .  S
C1434      C1435   1.397       .  A
C1435      C1436   1.393       .  A
C1435      H1439   1.085       .  S
C1436      O1440   1.372       .  S
O1438      H1442   0.992       .  S
O1440      H1441   0.992       .  S
C1443      C1444   1.404       .  A
C1443      C1448   1.406       .  A
C1444      C1445   1.408       .  A
C1444      H1449   1.083       .  S
C1445      C1446   1.418       .  A
C1445      O1450   1.370       .  S
C1446      C1447   1.412       .  A
C1447      C1448   1.398       .  A
C1447      H1451   1.080       .  S
C1448      O1452   1.372       .  S
O1450      H1454   0.992       .  S
O1452      H1453   0.992       .  S
C1455      C1456   1.407       .  A
C1455      C1460   1.416       .  A
C1456      C1457   1.408       .  A
C1456      H1461   1.083       .  S
C1457      C1458   1.412       .  A
C1457      O1462   1.371       .  S
C1458      C1459   1.402       .  A
C1459      C1460   1.402       .  A
C1459      H1681   1.084       .  S
C1460      O1682   1.371       .  S
O1462      H1466   0.992       .  S
H1463      C1677   1.083       .  S
O1464      C1678   1.372       .  S
O1464      H1465   0.992   1_556  S
C1467      C1468   1.406   1_545  A
C1468      C1469   1.405       .  A
C1468      H1473   1.083       .  S
C1469      O1474   1.372       .  S
C1471      C1472   1.398       .  A
C1471      H1475   1.084   1_655  S
C1472      O1476   1.371       .  S
O1474      H1478   0.992       .  S
O1476      H1477   0.992       .  S
C1480      C1481   1.404       .  A
C1480      H1485   1.083       .  S
C1481      O1486   1.371       .  S
C1483      C1484   1.414       .  A
C1483      H1487   1.083       .  S
C1484      O1488   1.374       .  S
O1486      H1490   0.992       .  S
O1488      H1489   0.992       .  S
C1491      C1492   1.405       .  A
C1491      C1496   1.411       .  A
C1492      C1493   1.403       .  A
C1492      H1497   1.083       .  S
C1493      C1494   1.410       .  A
C1493      O1498   1.372       .  S
C1494      C1495   1.403       .  A
C1495      C1496   1.406       .  A
C1495      H1499   1.084       .  S
C1496      O1500   1.371       .  S
O1498      H1502   0.992       .  S
O1500      H1501   0.992       .  S
C1503      C1504   1.405       .  A
C1503      C1508   1.416       .  A
C1504      C1505   1.398       .  A
C1504      H1509   1.083       .  S
C1505      C1506   1.408       .  A
C1505      O1510   1.373       .  S
C1506      C1507   1.403       .  A
C1507      C1508   1.408       .  A
C1507      H1511   1.084       .  S
C1508      O1512   1.371       .  S
O1510      H1514   0.991       .  S
O1512      H1513   0.992       .  S
C1515      C1516   1.400       .  A
C1515      C1520   1.415       .  A
C1516      C1517   1.399       .  A
C1516      H1521   1.084       .  S
C1517      C1518   1.410       .  A
C1517      O1522   1.373       .  S
C1518      C1519   1.400       .  A
C1519      C1520   1.402       .  A
C1519      H1523   1.084       .  S
C1520      O1524   1.372       .  S
O1522      H1526   0.989       .  S
O1524      H1525   0.992       .  S
N1527      C1531   1.365       .  A
N1527      C1528   1.362       .  A
N1527      C1709   1.447       .  S
C1528      C1529   1.372       .  A
C1528      C1724   1.479       .  S
C1529      C1530   1.358       .  A
C1529      H1532   1.069       .  S
C1530      C1531   1.376       .  A
C1530      H1533   1.083       .  S
C1531      C1736   1.473       .  S
Zn1534     O1538   1.926       .  S
Zn1534     O1543   2.053       .  S
Zn1534     O1550   2.056       .  S
Zn1535     O1542   2.063       .  S
Zn1536     O1541   2.042       .  S
Zn1536     O1547   2.033   1_455  S
Zn1537     O1538   1.906       .  S
Zn1537     O1549   2.021       .  S
O1539      C1551   1.269       .  A
O1540      C1552   1.276       .  A
O1542      C1551   1.281       .  A
O1543      C1553   1.284   1_655  A
O1544      C1552   1.283       .  A
O1545      C1554   1.278       .  A
O1547      C1554   1.276       .  A
O1548      C1555   1.280   1_545  A
O1549      C1556   1.275       .  A
O1550      C1556   1.282       .  A
C1551      C1733   1.482       .  S
C1552      C1673   1.490       .  S
C1553      C1688   1.490       .  S
C1554      C1721   1.493       .  S
C1555      C1700   1.479       .  S
C1556      C1661   1.494       .  S
N1557      C1561   1.364       .  A
N1557      C1558   1.362       .  A
C1558      C1559   1.380   1_554  A
C1558      C1676   1.498       .  S
C1559      C1560   1.371       .  A
C1559      H1562   1.079       .  S
C1560      C1561   1.385   1_556  A
C1560      H1563   1.083       .  S
C1561      C1664   1.495   1_554  S
N1564      C1568   1.369       .  A
C1565      C1566   1.370       .  A
C1565      C1637   1.477       .  S
C1566      H1569   1.070       .  S
C1567      C1568   1.379       .  A
C1567      H1570   1.081       .  S
C1568      C1628   1.493   1_545  S
Zn1571     O1575   1.925       .  S
Zn1571     O1576   2.087       .  S
Zn1571     O1580   1.984       .  S
Zn1571     O1587   2.045       .  S
Zn1572     O1575   1.914       .  S
Zn1572     O1577   2.032       .  S
Zn1572     O1579   2.016       .  S
Zn1572     O1583   2.048       .  S
Zn1573     O1575   1.927       .  S
Zn1573     O1578   2.046       .  S
Zn1573     O1581   2.021       .  S
Zn1573     O1584   2.005       .  S
Zn1574     O1575   1.928       .  S
Zn1574     O1582   2.066       .  S
Zn1574     O1585   2.005       .  S
Zn1574     O1586   2.041       .  S
O1576      C1588   1.284       .  A
O1577      C1589   1.280       .  A
O1578      C1590   1.278       .  A
O1579      C1588   1.273       .  A
O1580      C1590   1.271       .  A
O1581      C1589   1.280       .  A
O1582      C1591   1.280       .  A
O1583      C1592   1.280       .  A
O1584      C1591   1.272       .  A
O1585      C1592   1.273       .  A
O1586      C1593   1.282       .  A
O1587      C1593   1.282       .  A
C1588      C1625   1.498       .  S
C1589      C1652   1.487       .  S
C1590      C1613   1.485       .  S
C1591      C1640   1.491       .  S
C1592      C1601   1.483       .  S
C1593      C1712   1.486       .  S
N1594      C1685   1.446       .  S
C1595      C1596   1.375       .  A
C1595      C1616   1.464   1_545  S
C1596      H1599   1.082       .  S
C1597      C1598   1.385       .  A
C1597      H1600   1.079       .  S
C1598      C1604   1.495       .  S
C1601      C1602   1.402       .  A
C1601      C1606   1.411       .  A
C1602      C1603   1.399       .  A
C1602      H1607   1.084       .  S
C1603      C1604   1.415       .  A
C1603      O1608   1.371       .  S
C1604      C1605   1.407       .  A
C1605      C1606   1.404       .  A
C1605      H1609   1.082       .  S
C1606      O1610   1.372       .  S
O1608      H1612   0.992       .  S
O1610      H1611   0.992       .  S
C1613      C1614   1.410       .  A
C1613      C1618   1.411       .  A
C1614      C1615   1.395       .  A
C1614      H1619   1.083       .  S
C1615      C1616   1.400       .  A
C1615      O1620   1.372       .  S
C1616      C1617   1.403       .  A
C1617      C1618   1.401       .  A
C1617      H1621   1.082       .  S
C1618      O1622   1.372       .  S
O1620      H1624   0.992       .  S
O1622      H1623   0.992       .  S
C1625      C1626   1.414       .  A
C1625      C1630   1.408       .  A
C1626      C1627   1.410       .  A
C1626      H1631   1.083       .  S
C1627      C1628   1.405       .  A
C1627      O1632   1.371       .  S
C1628      C1629   1.408       .  A
C1629      C1630   1.404       .  A
C1629      H1633   1.078       .  S
C1630      O1634   1.372       .  S
O1632      H1636   0.992       .  S
O1634      H1635   0.992       .  S
C1637      C1638   1.406       .  A
C1637      C1642   1.409       .  A
C1638      C1639   1.408       .  A
C1638      H1643   1.084       .  S
C1639      C1640   1.411       .  A
C1639      O1644   1.372       .  S
C1640      C1641   1.406       .  A
C1641      C1642   1.400       .  A
C1641      H1645   1.084       .  S
C1642      O1646   1.373       .  S
O1644      H1648   0.991       .  S
O1646      H1647   0.991   1_655  S
C1649      C1650   1.407       .  A
C1649      C1654   1.417       .  A
C1650      C1651   1.405       .  A
C1650      H1655   1.077       .  S
C1651      C1652   1.410       .  A
C1651      O1656   1.371       .  S
C1652      C1653   1.403       .  A
C1653      C1654   1.398       .  A
C1653      H1657   1.084       .  S
C1654      O1658   1.371       .  S
O1656      H1660   0.992       .  S
O1658      H1659   0.992       .  S
C1661      C1662   1.414   1_556  A
C1661      C1666   1.407       .  A
C1662      C1663   1.413       .  A
C1662      H1667   1.083       .  S
C1663      C1664   1.407   1_554  A
C1663      O1668   1.373       .  S
C1664      C1665   1.406       .  A
C1665      C1666   1.397       .  A
C1665      H1669   1.077       .  S
C1666      O1670   1.372       .  S
O1668      H1672   0.993       .  S
O1670      H1671   0.992       .  S
C1673      C1674   1.403       .  A
C1673      C1678   1.412       .  A
C1674      C1675   1.405       .  A
C1674      H1679   1.083       .  S
C1675      C1676   1.414   1_556  A
C1675      O1680   1.369       .  S
C1676      C1677   1.406       .  A
C1677      C1678   1.403   1_554  A
O1680      H1684   0.992   1_556  S
O1682      H1683   0.992       .  S
C1685      C1686   1.404   1_545  A
C1686      C1687   1.402       .  A
C1686      H1691   1.082       .  S
C1687      O1692   1.372       .  S
C1689      C1690   1.400   1_455  A
C1689      H1693   1.084       .  S
C1690      O1694   1.370       .  S
O1692      H1696   0.992       .  S
O1694      H1695   0.992       .  S
C1698      C1699   1.404       .  A
C1698      H1703   1.080       .  S
C1699      O1704   1.372       .  S
C1701      C1702   1.414       .  A
C1701      H1705   1.083       .  S
C1702      O1706   1.372       .  S
O1704      H1708   0.992       .  S
O1706      H1707   0.991       .  S
C1709      C1710   1.405       .  A
C1709      C1714   1.410       .  A
C1710      C1711   1.406       .  A
C1710      H1715   1.083       .  S
C1711      C1712   1.411       .  A
C1711      O1716   1.372       .  S
C1712      C1713   1.404       .  A
C1713      C1714   1.405       .  A
C1713      H1717   1.084       .  S
C1714      O1718   1.371       .  S
O1716      H1720   0.992       .  S
O1718      H1719   0.992       .  S
C1721      C1722   1.406       .  A
C1721      C1726   1.415       .  A
C1722      C1723   1.398       .  A
C1722      H1727   1.084       .  S
C1723      C1724   1.408       .  A
C1723      O1728   1.372       .  S
C1724      C1725   1.403       .  A
C1725      C1726   1.408       .  A
C1725      H1729   1.084       .  S
C1726      O1730   1.371       .  S
O1728      H1732   0.991       .  S
O1730      H1731   0.992       .  S
C1733      C1734   1.402       .  A
C1733      C1738   1.414       .  A
C1734      C1735   1.402       .  A
C1734      H1739   1.084       .  S
C1735      C1736   1.409       .  A
C1735      O1740   1.373       .  S
C1736      C1737   1.400       .  A
C1737      C1738   1.402       .  A
C1737      H1741   1.084       .  S
C1738      O1742   1.372       .  S
O1740      H1744   0.992       .  S
O1742      H1743   0.992       .  S
