geometry optimzed in LAMMPS
_audit_creation_date              2020-11-30 
_audit_creation_method            'lammps2cif' 
_symmetry_space_group_name_H-M    'P1' 
_symmetry_Int_Tables_number       1 
_symmetry_cell_setting            triclinic 
loop_ 
_symmetry_equiv_pos_as_xyz 
  x,y,z 
_cell_length_a                    23.69711629167413 
_cell_length_b                    23.880340167503586 
_cell_length_c                    36.15039646543164 
_cell_angle_alpha                 88.1711759024787 
_cell_angle_beta                  90.05019500072872 
_cell_angle_gamma                 89.4831726253692 
loop_ 
_atom_site_label 
_atom_site_type_symbol 
_atom_site_fract_x 
_atom_site_fract_y 
_atom_site_fract_z 
_atom_site_charge 
O1          O  0.95055012  0.38783085  0.73998913    -0.80180
O2          O  0.07037903  0.61906468  0.73707589    -0.80200
O3          O  0.95772478  0.56360268  0.69153624    -0.80210
O4          O  0.06694817  0.44167188  0.69404607    -0.80150
O5          O  0.96165214  0.62402576  0.73580297    -0.80270
O6          O  0.05897048  0.38244494  0.74153746    -0.80190
O7          O  0.07245175  0.56085660  0.69150288    -0.80180
O8          O  0.95178599  0.44840172  0.69318091    -0.80210
C9          C  0.94525651  0.39886075  0.70550476     1.09510
C10         C  0.07602767  0.61054052  0.70274062     1.09400
C11         C  0.95455556  0.61344209  0.70184886     1.09540
C12         C  0.06737429  0.39162429  0.70705217     1.09410
O13         O  0.06480052  0.44212628  0.81071632    -0.80180
O14         O  0.95313119  0.56310251  0.80725900    -0.80250
O15         O  0.88705434  0.45518156  0.76151491    -0.80190
O16         O  0.13263827  0.55149542  0.76275887    -0.80170
O17         O  0.07216908  0.55824501  0.80836728    -0.80220
O18         O  0.94336790  0.44665533  0.80953884    -0.80190
O19         O  0.12556385  0.44390739  0.76468740    -0.80150
O20         O  0.89418139  0.56277805  0.76049655    -0.80220
Co21       Co  0.00495048  0.42240330  0.77530823     1.51530
Co22       Co  0.01384592  0.58375789  0.77219794     1.51690
Co23       Co  0.93001792  0.50722237  0.72700810     1.51570
Co24       Co  0.09181484  0.49987587  0.72832360     1.51470
O25         O  0.01025732  0.50321605  0.75093917    -1.42110
C26         C  0.11511806  0.43734806  0.79903221     1.09440
C27         C  0.90331352  0.56811537  0.79480871     1.09530
C28         C  0.89366457  0.44602338  0.79609291     1.09470
C29         C  0.12266200  0.55995717  0.79679771     1.09440
C30         C  0.69061469  0.37700274  0.87529780     0.03090
C31         C  0.67167792  0.32588073  0.86210788    -0.13060
C32         C  0.62160775  0.30131982  0.87499006     0.00590
C33         C  0.59104819  0.32686974  0.90331309    -0.11580
C34         C  0.60882247  0.37842616  0.91714924     0.03080
C35         C  0.65876452  0.40341037  0.90284360    -0.11010
H36         H  0.69529828  0.30571785  0.84047048     0.08680
H37         H  0.55218230  0.30818766  0.91321989     0.06210
H38         H  0.67247802  0.44335770  0.91286810     0.06050
O39         O  0.56423136  0.05819827  0.80260673    -0.80180
O40         O  0.45525354  0.93601320  0.80368100    -0.80200
O41         O  0.44660145  0.11181352  0.75560456    -0.80210
O42         O  0.57057435  0.88063096  0.75956605    -0.80150
O43         O  0.44796270  0.05088423  0.80206193    -0.80270
O44         O  0.57094659  0.93920075  0.80498505    -0.80190
O45         O  0.46195626  0.87560838  0.75949125    -0.80180
O46         O  0.55589444  0.11759867  0.75526747    -0.80210
C47         C  0.56423541  0.10829646  0.78975473     1.09510
C48         C  0.45339110  0.88616636  0.79331013     1.09400
C49         C  0.44197060  0.10069865  0.79006427     1.09540
C50         C  0.57531642  0.88940579  0.79397084     1.09410
O51         O  0.63211038  0.94801213  0.73417303    -0.80180
O52         O  0.38459710  0.04452655  0.73238596    -0.80250
O53         O  0.56330290  0.05834372  0.68617123    -0.80190
O54         O  0.45383030  0.93659360  0.68793983    -0.80170
O55         O  0.39364128  0.93700173  0.73399572    -0.80220
O56         O  0.62441040  0.05585084  0.73212226    -0.80190
O57         O  0.57247904  0.94203920  0.68808050    -0.80150
O58         O  0.44387533  0.05359587  0.68602400    -0.80220
Co59       Co  0.59026442  0.99996888  0.76830024     1.51530
Co60       Co  0.42772556  0.99255759  0.76779737     1.51690
Co61       Co  0.50300232  0.07783781  0.72104285     1.51570
Co62       Co  0.51418999  0.91619044  0.72372303     1.51470
O63         O  0.50887451  0.99672183  0.74506113    -1.42110
C64         C  0.62270446  0.93946773  0.70009796     1.09440
C65         C  0.39350155  0.05334330  0.69800389     1.09530
C66         C  0.61341964  0.06312208  0.69783420     1.09470
C67         C  0.40417569  0.92983056  0.70003014     1.09440
C68         C  0.37685109  0.70910593  0.88943966     0.03090
C69         C  0.40533962  0.68142263  0.91863664    -0.13060
C70         C  0.38644150  0.62917547  0.93161369     0.00590
C71         C  0.33730486  0.60584681  0.91598841    -0.11580
C72         C  0.30813498  0.63431233  0.88711394     0.03080
C73         C  0.32791246  0.68640695  0.87454870    -0.11010
H74         H  0.44509073  0.69758811  0.92840826     0.08680
H75         H  0.32396327  0.56416752  0.92464767     0.06210
H76         H  0.30751733  0.70761756  0.85109189     0.06050
C77         C  0.63591672  0.69602007  0.88554537     0.03090
C78         C  0.68938720  0.68037927  0.87308238    -0.13060
C79         C  0.71480989  0.63012420  0.88520421     0.00590
C80         C  0.68849434  0.59659563  0.91228604    -0.11580
C81         C  0.63516257  0.61175733  0.92600032     0.03080
C82         C  0.60849917  0.66160114  0.91220597    -0.11010
H83         H  0.70969797  0.70562349  0.85154217     0.08680
H84         H  0.70806053  0.55713181  0.92097062     0.06210
H85         H  0.56653049  0.67283294  0.92143299     0.06050
C86         C  0.29974404  0.34965627  0.88632977     0.03090
C87         C  0.32099935  0.30093793  0.87106012    -0.13060
C88         C  0.37282424  0.27809628  0.88287655     0.00590
C89         C  0.40266716  0.30250906  0.91160208    -0.11580
C90         C  0.38181955  0.35175739  0.92680947     0.03080
C91         C  0.32998458  0.37487774  0.91431445    -0.11010
H92         H  0.29894097  0.28282077  0.84806538     0.08680
H93         H  0.44378851  0.28615801  0.91974111     0.06210
H94         H  0.31478811  0.41426873  0.92484108     0.06050
C95         C  0.19109343  0.12083054  0.61916633     0.03090
C96         C  0.17362064  0.17215978  0.63305539    -0.13060
C97         C  0.12245277  0.19742660  0.62184115     0.00590
C98         C  0.08937745  0.17220828  0.59478244    -0.11580
C99         C  0.10563751  0.12005316  0.58082695     0.03080
C100        C  0.15628558  0.09411523  0.59367575    -0.11010
H101        H  0.19923295  0.19179800  0.65378685     0.08680
H102        H  0.04998956  0.19174806  0.58592082     0.06210
H103        H  0.16928486  0.05398091  0.58320527     0.06050
C104        C  0.13687244  0.79993955  0.60904914     0.03090
C105        C  0.19151793  0.81270912  0.62030801    -0.13060
C106        C  0.21640064  0.86378109  0.61015378     0.00590
C107        C  0.18883369  0.89986266  0.58463650    -0.11580
C108        C  0.13509537  0.88642935  0.57101089     0.03080
C109        C  0.10851449  0.83670329  0.58403518    -0.11010
H110        H  0.21282211  0.78471347  0.64010536     0.08680
H111        H  0.20774320  0.93972295  0.57701911     0.06210
H112        H  0.06587090  0.82732525  0.57553128     0.06050
C113        C  0.79661581  0.15128000  0.61164004     0.03090
C114        C  0.81666298  0.20048624  0.62639996    -0.13060
C115        C  0.86841687  0.22280741  0.61468589     0.00590
C116        C  0.89885887  0.19759857  0.58635350    -0.11580
C117        C  0.87908281  0.14790292  0.57171559     0.03080
C118        C  0.82787780  0.12491945  0.58445648    -0.11010
H119        H  0.79387279  0.21932553  0.64892913     0.08680
H120        H  0.93972820  0.21371768  0.57812909     0.06210
H121        H  0.81340209  0.08528788  0.57427841     0.06050
C122        C  0.87527538  0.78803505  0.60377582     0.03090
C123        C  0.90439945  0.81701283  0.57574501    -0.13060
C124        C  0.88551552  0.87014395  0.56390728     0.00590
C125        C  0.83596116  0.89334790  0.57961351    -0.11580
C126        C  0.80578648  0.86331694  0.60709033     0.03080
C127        C  0.82504048  0.80981770  0.61791298    -0.11010
H128        H  0.94486433  0.80128875  0.56642377     0.08680
H129        H  0.82315620  0.93593302  0.57224348     0.06210
H130        H  0.80393074  0.78711159  0.64030269     0.06050
O131        O  0.55192851  0.41658149  0.05165770    -0.80180
O132        O  0.46668689  0.55533090  0.05432418    -0.80200
O133        O  0.58513662  0.54435781  0.03886442    -0.80210
O134        O  0.37167336  0.43068574  0.01941510    -0.80150
O135        O  0.54470558  0.62564078  0.02466822    -0.80270
O136        O  0.44382125  0.40145597  0.05335644    -0.80190
O137        O  0.38632104  0.54462747  0.02464198    -0.80180
O138        O  0.62049386  0.44045507  0.01563633    -0.80210
C139        C  0.60311332  0.41410161  0.04434262     1.09510
C140        C  0.41388829  0.56253032  0.05226734     1.09400
C141        C  0.58103507  0.59774931  0.04345563     1.09540
C142        C  0.39173006  0.40411823  0.04743521     1.09410
O143        O  0.44178012  0.36248746  0.97931109    -0.80180
O144        O  0.55367581  0.57638420  0.95891182    -0.80250
O145        O  0.56882823  0.45899022  0.94442318    -0.80190
O146        O  0.42855233  0.54340147  0.94717923    -0.80170
O147        O  0.44860137  0.60934533  0.98374284    -0.80220
O148        O  0.55730572  0.37798839  0.97435213    -0.80190
O149        O  0.41675851  0.43654390  0.94554508    -0.80150
O150        O  0.63645116  0.53820197  0.97237931    -0.80220
Co151      Co  0.49884591  0.39518406  0.01399537     1.51530
Co152      Co  0.50967659  0.55994968  0.00783062     1.51690
Co153      Co  0.57090664  0.50087895  0.99054231     1.51570
Co154      Co  0.40617781  0.48872354  0.98483099     1.51470
O155        O  0.48875974  0.47836464  0.99963086    -1.42110
C156        C  0.41637182  0.38465835  0.95155919     1.09440
C157        C  0.60761794  0.57435307  0.95384394     1.09530
C158        C  0.57547575  0.40639698  0.94633670     1.09470
C159        C  0.42340202  0.59334293  0.95516842     1.09440
C160        C  0.38319856  0.68126660  0.11783964     0.03090
C161        C  0.41195506  0.64606599  0.09342203    -0.13060
C162        C  0.38516567  0.59771346  0.07990329     0.00590
C163        C  0.33061201  0.58391274  0.09257452    -0.11580
C164        C  0.30297095  0.61803569  0.11794907     0.03080
C165        C  0.32819091  0.66794150  0.12824492    -0.11010
H166        H  0.45467524  0.65611206  0.08508874     0.08680
H167        H  0.31115819  0.54546781  0.08422447     0.06210
H168        H  0.30622772  0.69483646  0.14725932     0.06050
C169        C  0.70963049  0.37161541  0.11743119     0.03090
C170        C  0.68607140  0.40008026  0.08641801    -0.13060
C171        C  0.63844778  0.37831211  0.06918282     0.00590
C172        C  0.61599676  0.32667452  0.08248242    -0.11580
C173        C  0.64077754  0.29724900  0.11261562     0.03080
C174        C  0.68789717  0.31977238  0.12959825    -0.11010
H175        H  0.70119914  0.44130090  0.07815046     0.08680
H176        H  0.57737395  0.31096789  0.07069401     0.06210
H177        H  0.70581389  0.29837270  0.15383288     0.06050
C178        C  0.62943828  0.70572087  0.11022545     0.03090
C179        C  0.59835116  0.67865007  0.08343125    -0.13060
C180        C  0.61581964  0.62592051  0.07115492     0.00590
C181        C  0.66544146  0.60069439  0.08608729    -0.11580
C182        C  0.69704027  0.62856492  0.11275941     0.03080
C183        C  0.67894193  0.68115745  0.12419426    -0.11010
H184        H  0.55908862  0.69746893  0.07363364     0.08680
H185        H  0.67862165  0.55941120  0.07775877     0.06210
H186        H  0.70171158  0.70161828  0.14596648     0.06050
O187        O  0.44516409  0.86892495  0.23595996    -0.80180
O188        O  0.54106412  0.11577041  0.23049739    -0.80200
O189        O  0.43303686  0.04274273  0.18226616    -0.80210
O190        O  0.55713018  0.93948311  0.18657596    -0.80150
O191        O  0.43227224  0.10606082  0.22522164    -0.80270
O192        O  0.55405668  0.87772564  0.23313514    -0.80190
O193        O  0.55184831  0.05751548  0.18557390    -0.80180
O194        O  0.43895052  0.92547334  0.18744991    -0.80210
C195        C  0.43844216  0.87605702  0.20123754     1.09510
C196        C  0.55396677  0.10695101  0.19710798     1.09400
C197        C  0.42473770  0.09256702  0.19177035     1.09540
C198        C  0.56089826  0.88919493  0.19879229     1.09410
O199        O  0.55729685  0.93675567  0.30263954    -0.80180
O200        O  0.42898130  0.04578935  0.29767804    -0.80250
O201        O  0.37739964  0.93221156  0.25822882    -0.80190
O202        O  0.60811835  0.05272491  0.25796103    -0.80170
O203        O  0.54300052  0.05246119  0.30118497    -0.80220
O204        O  0.43864798  0.93152731  0.30391510    -0.80190
O205        O  0.61641589  0.94395371  0.25628709    -0.80150
O206        O  0.36929681  0.04044602  0.25204398    -0.80220
Co207      Co  0.49839391  0.91129248  0.26845340     1.51530
Co208      Co  0.48667049  0.07275082  0.26347590     1.51690
Co209      Co  0.41219039  0.98561249  0.22016972     1.51570
Co210      Co  0.57573715  0.99798118  0.22172690     1.51470
O211        O  0.49338235  0.99183210  0.24318569    -1.42110
C212        C  0.60738028  0.93532724  0.29052627     1.09440
C213        C  0.37925488  0.04988596  0.28585752     1.09530
C214        C  0.38803164  0.92847360  0.29278617     1.09470
C215        C  0.59324405  0.06021336  0.29132138     1.09440
O216        O  0.05619798  0.56573878  0.31123671    -0.80180
O217        O  0.93590169  0.45879798  0.31608479    -0.80200
O218        O  0.94494911  0.63253450  0.26176797    -0.80210
O219        O  0.04614705  0.38771384  0.27065840    -0.80150
O220        O  0.93955253  0.57642184  0.31067686    -0.80270
O221        O  0.05418918  0.44743529  0.31501794    -0.80190
O222        O  0.93687536  0.39546431  0.27315126    -0.80180
O223        O  0.05337633  0.62526490  0.26343281    -0.80210
C224        C  0.06056296  0.61526320  0.29794803     1.09510
C225        C  0.92881885  0.40896146  0.30649893     1.09400
C226        C  0.93854250  0.62571964  0.29656403     1.09540
C227        C  0.05733480  0.39753991  0.30418340     1.09410
O228        O  0.11256613  0.45010461  0.24392372    -0.80180
O229        O  0.87822146  0.56936171  0.24048712    -0.80250
O230        O  0.05729575  0.56298637  0.19486667    -0.80190
O231        O  0.93418338  0.45369773  0.20064529    -0.80170
O232        O  0.87342151  0.46123918  0.24576839    -0.80220
O233        O  0.11610378  0.55784698  0.24171827    -0.80190
O234        O  0.04987787  0.44747337  0.19934172    -0.80150
O235        O  0.93773242  0.56820087  0.19413530    -0.80220
Co236      Co  0.07707835  0.50569325  0.27786476     1.51530
Co237      Co  0.91421479  0.51597555  0.27815180     1.51690
Co238      Co  0.99810998  0.58965074  0.22898364     1.51570
Co239      Co  0.99189786  0.42831221  0.23597294     1.51470
O240        O  0.99538790  0.50990365  0.25537900    -1.42110
C241        C  0.10045115  0.44337094  0.21012053     1.09440
C242        C  0.88740855  0.57229708  0.20582563     1.09530
C243        C  0.10721095  0.56544930  0.20725959     1.09470
C244        C  0.88405648  0.45143019  0.21204144     1.09440
C245        C  0.28190759  0.37360305  0.11926421     0.03090
C246        C  0.30948781  0.40016550  0.08968917    -0.13060
C247        C  0.35507067  0.37331145  0.07331548     0.00590
C248        C  0.36975333  0.31799368  0.08451696    -0.11580
C249        C  0.34200988  0.29040070  0.11436768     0.03080
C250        C  0.29961286  0.32067900  0.13247768    -0.11010
H251        H  0.29743055  0.44234747  0.08084018     0.08680
H252        H  0.40344464  0.29762828  0.06984132     0.06210
H253        H  0.28057905  0.30472781  0.15773215     0.06050
C254        C  0.20957876  0.13169981  0.38450132     0.03090
C255        C  0.18882292  0.18511745  0.37425425    -0.13060
C256        C  0.14098739  0.20711784  0.39107636     0.00590
C257        C  0.11495736  0.17598827  0.41973008    -0.11580
C258        C  0.13679507  0.12296268  0.43151036     0.03080
C259        C  0.18468371  0.10130095  0.41405277    -0.11010
H260        H  0.20745643  0.20800156  0.35099225     0.08680
H261        H  0.07570709  0.19132773  0.43121264     0.06210
H262        H  0.19884318  0.05892879  0.42081983     0.06050
C263        C  0.77987084  0.13551383  0.37811363     0.03090
C264        C  0.80910184  0.18129204  0.36202935    -0.13060
C265        C  0.85135571  0.20915416  0.38108679     0.00590
C266        C  0.87354091  0.18259498  0.41301086    -0.11580
C267        C  0.85315933  0.13034514  0.42543336     0.03080
C268        C  0.80356024  0.10937136  0.41026369    -0.11010
H269        H  0.79898237  0.19610710  0.33432110     0.08680
H270        H  0.90725747  0.20119646  0.42836049     0.06210
H271        H  0.78611887  0.07234873  0.42325970     0.06050
C272        C  0.13079463  0.79879760  0.38477243     0.03090
C273        C  0.18077168  0.82286817  0.37199049    -0.13060
C274        C  0.19893401  0.87394891  0.38528904     0.00590
C275        C  0.16643381  0.90129838  0.41196225    -0.11580
C276        C  0.11638104  0.87641221  0.42566162     0.03080
C277        C  0.09915833  0.82488116  0.41191725    -0.11010
H278        H  0.20422797  0.80309325  0.35010347     0.08680
H279        H  0.17971615  0.94159535  0.42162058     0.06210
H280        H  0.05979546  0.80619603  0.42097333     0.06050
C281        C  0.88250651  0.82181344  0.37885068     0.03090
C282        C  0.82722378  0.83587396  0.36860453    -0.13060
C283        C  0.80099822  0.88408407  0.38122953     0.00590
C284        C  0.82891349  0.91781675  0.40630247    -0.11580
C285        C  0.88418036  0.90419239  0.41780884     0.03080
C286        C  0.91125037  0.85606751  0.40362957    -0.10750
H287        H  0.80550088  0.81087541  0.34856520     0.08680
H288        H  0.80865420  0.95569413  0.41560693     0.06210
H289        H  0.95419260  0.84553039  0.41165383     0.06050
O290        O  0.05008817  0.08386771  0.44671907    -0.80180
O291        O  0.96548029  0.94606760  0.44308611    -0.80200
O292        O  0.08473015  0.95662694  0.45933270    -0.80210
O293        O  0.86865836  0.07094089  0.47924292    -0.80150
O294        O  0.04498122  0.87512492  0.47188456    -0.80270
O295        O  0.94077214  0.09650640  0.44476933    -0.80190
O296        O  0.88511278  0.95685462  0.47305720    -0.80180
O297        O  0.11784173  0.05971697  0.48381142    -0.80210
C298        C  0.10100722  0.08631461  0.45495913     1.09510
C299        C  0.91278657  0.93901583  0.44534250     1.09400
C300        C  0.08115544  0.90353674  0.45377556     1.09540
C301        C  0.88870111  0.09656515  0.45100700     1.09410
O302        O  0.93771787  0.13693343  0.51866560    -0.80180
O303        O  0.05320769  0.92274379  0.53827073    -0.80250
O304        O  0.06489004  0.04045904  0.55410334    -0.80190
O305        O  0.92762301  0.95589721  0.55027641    -0.80170
O306        O  0.94865240  0.89086517  0.51292562    -0.80220
O307        O  0.05309607  0.12167975  0.52409031    -0.80190
O308        O  0.91529011  0.06306796  0.55292966    -0.80150
O309        O  0.13520622  0.96207066  0.52621232    -0.80220
Co310      Co  0.99555226  0.10442224  0.48409115     1.51530
Co311      Co  0.00893546  0.94038611  0.48939803     1.51690
Co312      Co  0.06894621  0.99910835  0.50793158     1.51570
Co313      Co  0.90439731  0.01173538  0.51328783     1.51470
O314        O  0.98677224  0.02157971  0.49840306    -1.42110
C315        C  0.91381149  0.11492993  0.54686752     1.09440
C316        C  0.10699632  0.92509036  0.54387548     1.09530
C317        C  0.07123917  0.09297837  0.55216800     1.09470
C318        C  0.92289344  0.90631737  0.54149824     1.09440
C319        C  0.20156562  0.44589274  0.19273433    -0.21340
C320        C  0.14595279  0.43109666  0.18399652    -0.09390
C321        C  0.13518877  0.40316366  0.15111132     0.29470
C322        C  0.17994151  0.38781485  0.12847306    -0.21350
C323        C  0.23536700  0.40094336  0.13811041    -0.09400
C324        C  0.24604021  0.43134207  0.16976290     0.29480
F325        F  0.29968168  0.44405251  0.17944419    -0.19920
H326        H  0.21074004  0.46793255  0.21773655     0.17840
H327        H  0.17173065  0.36328622  0.10437898     0.17850
F328        F  0.08215804  0.38740684  0.14211331    -0.19910
C329        C  0.09549684  0.65186401  0.35786228    -0.21340
C330        C  0.07460237  0.66209915  0.32182551    -0.09390
C331        C  0.06865991  0.71787611  0.30827423     0.29470
C332        C  0.08492678  0.76197395  0.32989421    -0.21350
C333        C  0.10774380  0.75152872  0.36510318    -0.09400
C334        C  0.11237693  0.69643195  0.37937765     0.29480
F335        F  0.13523547  0.68578564  0.41333221    -0.19920
H336        H  0.10040213  0.60943235  0.36890858     0.17840
H337        H  0.08114247  0.80450961  0.31876816     0.17850
F338        F  0.04764030  0.73015097  0.27398596    -0.19910
C339        C  0.92267997  0.72866365  0.30116578    -0.21340
C340        C  0.93033634  0.67619964  0.31936099    -0.09390
C341        C  0.93048034  0.67386658  0.35844403     0.29470
C342        C  0.91975391  0.72257284  0.37843564    -0.21350
C343        C  0.90925934  0.77417779  0.35978197    -0.09400
C344        C  0.91255511  0.77687008  0.32096762     0.29480
F345        F  0.90246459  0.82595187  0.30200337    -0.19920
H346        H  0.92307384  0.73245806  0.27124453     0.17840
H347        H  0.91669308  0.71944075  0.40830350     0.17850
F348        F  0.93956855  0.62457650  0.37730468    -0.19910
C349        C  0.83277405  0.29926379  0.34538709    -0.21340
C350        C  0.87046963  0.26546851  0.36687605    -0.09390
C351        C  0.92521267  0.28629216  0.37326841     0.29470
C352        C  0.94130583  0.33788182  0.35746726    -0.21350
C353        C  0.90595563  0.36666544  0.33232402    -0.09400
C354        C  0.85101287  0.34788255  0.32704379     0.29480
F355        F  0.81554963  0.37563315  0.30314102    -0.19920
H356        H  0.78934182  0.28725747  0.34139846     0.17840
H357        H  0.98260017  0.35367460  0.36326910     0.17850
F358        F  0.96487603  0.25600610  0.39235342    -0.19910
C359        C  0.06530255  0.29489569  0.31809416    -0.21340
C360        C  0.07586617  0.34990215  0.32898500    -0.09390
C361        C  0.10396899  0.35753540  0.36284610     0.29470
C362        C  0.12268417  0.31087972  0.38441144    -0.21350
C363        C  0.11304607  0.25625572  0.37273012    -0.09400
C364        C  0.08345657  0.24872517  0.33966655     0.29480
F365        F  0.07400067  0.19639547  0.32752792    -0.19920
H366        H  0.04310688  0.28741498  0.29254677     0.17840
H367        H  0.14636258  0.31733670  0.40951840     0.17850
F368        F  0.11515809  0.40976824  0.37443160    -0.19910
C369        C  0.34513166  0.15320518  0.17162839    -0.21340
C370        C  0.40023000  0.13443264  0.16573598    -0.09390
C371        C  0.43245022  0.16032342  0.13783491     0.29470
C372        C  0.41364257  0.21051700  0.12080342    -0.21350
C373        C  0.35960141  0.23281742  0.12865873    -0.09400
C374        C  0.32379691  0.19988445  0.15188746     0.29480
F375        F  0.26802956  0.21165013  0.15557727    -0.19920
H376        H  0.31850330  0.13158878  0.19169260     0.17840
H377        H  0.44268159  0.23189639  0.10240093     0.17850
F378        F  0.48248804  0.13795822  0.12760333    -0.19910
C379        C  0.64907603  0.89782473  0.35045377    -0.21340
C380        C  0.65612404  0.92353645  0.31518763    -0.09390
C381        C  0.71067178  0.93964712  0.30376444     0.29470
C382        C  0.75676512  0.92986539  0.32692208    -0.21350
C383        C  0.74989422  0.90346980  0.36165867    -0.09400
C384        C  0.69585903  0.88755090  0.37355587     0.29480
F385        F  0.68876615  0.86068572  0.40684504    -0.19920
H386        H  0.60760152  0.88520319  0.35987910     0.17840
H387        H  0.79850908  0.94121612  0.31720639     0.17850
F388        F  0.71976130  0.96530018  0.27026941    -0.19910
C389        C  0.65364077  0.04844102  0.34719996    -0.21340
C390        C  0.63388950  0.08183536  0.31750874    -0.09390
C391        C  0.65508272  0.13558003  0.31193319     0.29470
C392        C  0.69842281  0.15393765  0.33429554    -0.21350
C393        C  0.72620737  0.11695528  0.36000969    -0.09400
C394        C  0.70146263  0.06384822  0.36691559     0.29480
F395        F  0.72340493  0.02531280  0.39122983    -0.19920
H396        H  0.63360739  0.00922837  0.35407446     0.17840
H397        H  0.71036470  0.19722906  0.33040190     0.17850
F398        F  0.63338063  0.17059510  0.28509967    -0.19910
C399        C  0.34281833  0.06301277  0.34976853    -0.21340
C400        C  0.33390418  0.06657544  0.31121954    -0.09390
C401        C  0.28228939  0.08772810  0.29747434     0.29470
C402        C  0.24144597  0.10677654  0.32179661    -0.21350
C403        C  0.25129422  0.10544128  0.36015587    -0.09400
C404        C  0.30170134  0.08207699  0.37414255     0.29480
F405        F  0.31220852  0.08013541  0.41107884    -0.19920
H406        H  0.38200390  0.04615220  0.36103845     0.17840
H407        H  0.20229140  0.12384704  0.31057531     0.17850
F408        F  0.27193531  0.09199961  0.26055519    -0.19910
C409        C  0.23964975  0.92634808  0.33214163    -0.21340
C410        C  0.24805828  0.89995642  0.36683449    -0.09390
C411        C  0.30328135  0.88666191  0.37853389     0.29470
C412        C  0.34928185  0.89824714  0.35512358    -0.21350
C413        C  0.34047863  0.92137558  0.31927771    -0.09400
C414        C  0.28503345  0.93643383  0.30839409     0.29480
F415        F  0.27418143  0.95974445  0.27437082    -0.19920
H416        H  0.19723968  0.93571488  0.32241773     0.17840
H417        H  0.39136711  0.88635937  0.36424395     0.17850
F418        F  0.31224716  0.85914184  0.41146986    -0.19910
C419        C  0.73688665  0.59049349  0.17132846    -0.21340
C420        C  0.74444047  0.60175982  0.13344690    -0.09390
C421        C  0.79899560  0.59842221  0.11842627     0.29470
C422        C  0.84566837  0.58721369  0.14170174    -0.21350
C423        C  0.83836918  0.57971093  0.18022259    -0.09400
C424        C  0.78289768  0.57973529  0.19451252     0.29480
F425        F  0.77266687  0.57141869  0.23121368    -0.19920
H426        H  0.69513360  0.59329522  0.18338869     0.17840
H427        H  0.88756007  0.58643056  0.12979666     0.17850
F428        F  0.80742378  0.60944043  0.08180691    -0.19910
C429        C  0.59515871  0.85333776  0.13812737    -0.21340
C430        C  0.57390460  0.84281522  0.17398661    -0.09390
C431        C  0.56663465  0.78684893  0.18665013     0.29470
C432        C  0.58179647  0.74287407  0.16441359    -0.21350
C433        C  0.60538223  0.75339986  0.12952646    -0.09400
C434        C  0.61138978  0.80875394  0.11606215     0.29480
F435        F  0.63516054  0.81954917  0.08248546    -0.19920
H436        H  0.60112299  0.89589129  0.12775040     0.17840
H437        H  0.57716564  0.70021785  0.17502791     0.17850
F438        F  0.54563521  0.77416346  0.22080089    -0.19910
C439        C  0.55581058  0.20945055  0.18078677    -0.21340
C440        C  0.57365121  0.15466605  0.17311899    -0.09390
C441        C  0.61094147  0.14692750  0.14330969     0.29470
C442        C  0.63091899  0.19330431  0.12245185    -0.21350
C443        C  0.61343341  0.24786790  0.13059234    -0.09400
C444        C  0.57516655  0.25550210  0.15967579     0.29480
F445        F  0.55809946  0.30783192  0.16848572    -0.19920
H446        H  0.52684554  0.21668820  0.20333857     0.17840
H447        H  0.66129358  0.18681323  0.10060679     0.17850
F448        F  0.63000245  0.09493441  0.13535369    -0.19910
C449        C  0.80458352  0.41365448  0.12529887    -0.21340
C450        C  0.75236905  0.39831449  0.14034471    -0.09390
C451        C  0.74210288  0.40525411  0.17821626     0.29470
C452        C  0.78466689  0.42419664  0.20107583    -0.21350
C453        C  0.83824287  0.43637751  0.18664565    -0.09400
C454        C  0.84749511  0.43239804  0.14823927     0.29480
F455        F  0.89809222  0.44559705  0.13287408    -0.19920
H456        H  0.81276004  0.40906063  0.09607492     0.17840
H457        H  0.77602405  0.42782822  0.23031175     0.17850
F458        F  0.69105265  0.39271964  0.19321384    -0.19910
C459        C  0.25477349  0.60331697  0.17777636    -0.21340
C460        C  0.25270248  0.59939087  0.13919696    -0.09390
C461        C  0.20227684  0.58242678  0.12251442     0.29470
C462        C  0.15420274  0.57172832  0.14442061    -0.21350
C463        C  0.15626275  0.57777048  0.18305347    -0.09400
C464        C  0.20740833  0.59376171  0.19935034     0.29480
F465        F  0.21189889  0.60147664  0.23629781    -0.19920
H466        H  0.29334554  0.61543032  0.19139347     0.17840
H467        H  0.11560858  0.55870905  0.13129500     0.17850
F468        F  0.19900036  0.57805931  0.08525317    -0.19910
C469        C  0.42043281  0.78012840  0.11878507    -0.21340
C470        C  0.40979853  0.72850771  0.13715198    -0.09390
C471        C  0.41246672  0.72559482  0.17603308     0.29470
C472        C  0.42212367  0.77350403  0.19609096    -0.21350
C473        C  0.43018686  0.82593177  0.17815995    -0.09400
C474        C  0.43085149  0.82851892  0.13906543     0.29480
F475        F  0.44029948  0.87777686  0.12046290    -0.19920
H476        H  0.41779988  0.78355990  0.08890664     0.17840
H477        H  0.42200233  0.76950582  0.22600931     0.17850
F478        F  0.40213897  0.67660774  0.19482025    -0.19910
C479        C  0.42270711  0.20096552  0.80045876    -0.21340
C480        C  0.42972392  0.14635761  0.81535955    -0.09390
C481        C  0.42446926  0.13673795  0.85389563     0.29470
C482        C  0.40889397  0.18065816  0.87652889    -0.21350
C483        C  0.39845472  0.23412580  0.86092379    -0.09400
C484        C  0.40723837  0.24446593  0.82296271     0.29480
F485        F  0.39900306  0.29647325  0.80747038    -0.19920
H486        H  0.42784674  0.21000022  0.77112045     0.17840
H487        H  0.40258071  0.17249356  0.90585951     0.17850
F488        F  0.43279846  0.08494287  0.86959195    -0.19910
C489        C  0.42000474  0.85262048  0.85552051    -0.21340
C490        C  0.43995328  0.84045604  0.81996220    -0.09390
C491        C  0.44454017  0.78427188  0.80965498     0.29470
C492        C  0.42712150  0.74161887  0.83383626    -0.21350
C493        C  0.40423529  0.75415510  0.86827676    -0.09400
C494        C  0.40178330  0.80958188  0.87955244     0.29480
F495        F  0.37902236  0.82211399  0.91274904    -0.19920
H496        H  0.41630943  0.89550951  0.86414183     0.17840
H497        H  0.42909842  0.69866225  0.82505715     0.17850
F498        F  0.46430828  0.77034264  0.77590073    -0.19910
C499        C  0.60322384  0.79680823  0.88101777    -0.21340
C500        C  0.60797857  0.74377851  0.86543556    -0.09390
C501        C  0.59792027  0.73898817  0.82742321     0.29470
C502        C  0.58701109  0.78640339  0.80505397    -0.21350
C503        C  0.58470508  0.84016782  0.81986922    -0.09400
C504        C  0.59112306  0.84475243  0.85849684     0.29480
F505        F  0.58785359  0.89544227  0.87430498    -0.19920
H506        H  0.61173519  0.80145828  0.91018361     0.17840
H507        H  0.58148623  0.78078486  0.77568185     0.17850
F508        F  0.60242775  0.68842801  0.81144524    -0.19910
C509        C  0.76008176  0.08700252  0.66040919    -0.21340
C510        C  0.74904127  0.12268385  0.62977495    -0.09390
C511        C  0.69310118  0.13498263  0.61951419     0.29470
C512        C  0.64851877  0.11286194  0.64057074    -0.21350
C513        C  0.65957985  0.07950178  0.67252193    -0.09400
C514        C  0.71589994  0.06581441  0.68183871     0.29480
F515        F  0.72848000  0.03319850  0.71223334    -0.19920
H516        H  0.80319658  0.07748961  0.66860608     0.17840
H517        H  0.60558018  0.12416357  0.63302489     0.17850
F518        F  0.68181855  0.17016892  0.59018148    -0.19910
C519        C  0.66577797  0.92860262  0.63668100    -0.21340
C520        C  0.67056266  0.92426727  0.67554534    -0.09390
C521        C  0.72177227  0.90424813  0.69101785     0.29470
C522        C  0.76588702  0.88736395  0.66830266    -0.21350
C523        C  0.76052120  0.88946931  0.62957319    -0.09400
C524        C  0.71050327  0.91166989  0.61381950     0.29480
F525        F  0.70390912  0.91458751  0.57652768    -0.19920
H526        H  0.62719127  0.94448733  0.62400788     0.17840
H527        H  0.80420326  0.87100688  0.68114627     0.17850
F528        F  0.72880327  0.89874123  0.72824311    -0.19910
C529        C  0.35981662  0.92080521  0.63725241    -0.21340
C530        C  0.35767660  0.91243873  0.67592417    -0.09390
C531        C  0.30890915  0.88913564  0.69212998     0.29470
C532        C  0.26351954  0.87501315  0.67029544    -0.21350
C533        C  0.26554269  0.88229398  0.63169354    -0.09400
C534        C  0.31383776  0.90604536  0.61516247     0.29480
F535        F  0.31701736  0.91385450  0.57788570    -0.19920
H536        H  0.39666232  0.93928227  0.62425612     0.17840
H537        H  0.22633134  0.85803628  0.68380518     0.17850
F538        F  0.30482409  0.87938517  0.72924966    -0.19910
C539        C  0.29184447  0.03943178  0.68208527    -0.21340
C540        C  0.34405411  0.06420684  0.67319679    -0.09390
C541        C  0.34634320  0.10282794  0.64302743     0.29470
C542        C  0.29674139  0.11869045  0.62385457    -0.21350
C543        C  0.24441057  0.09514250  0.63367307    -0.09400
C544        C  0.24273533  0.05406261  0.66227094     0.29480
F545        F  0.19287587  0.03098323  0.67274759    -0.19920
H546        H  0.28871443  0.00974497  0.70523004     0.17840
H547        H  0.29870592  0.15118900  0.60233689     0.17850
F548        F  0.39550403  0.12849409  0.63394279    -0.19910
C549        C  0.57751309  0.21086049  0.79657856    -0.21340
C550        C  0.57438500  0.15714153  0.81357669    -0.09390
C551        C  0.58138279  0.15205725  0.85234235     0.29470
C552        C  0.59382557  0.19950906  0.87298025    -0.21350
C553        C  0.59966771  0.25239750  0.85526043    -0.09400
C554        C  0.59006721  0.25767277  0.81698127     0.29480
F555        F  0.59426860  0.30829756  0.79904089    -0.19920
H556        H  0.57143318  0.21683989  0.76703145     0.17840
H557        H  0.60104714  0.19463156  0.90248473     0.17850
F558        F  0.57730892  0.10142499  0.87020205    -0.19910
C559        C  0.26279852  0.40234033  0.83193803    -0.21340
C560        C  0.25289277  0.37938732  0.86734144    -0.09390
C561        C  0.19819739  0.38084585  0.88216434     0.29470
C562        C  0.15319240  0.40211197  0.86055310    -0.21350
C563        C  0.16262578  0.42199968  0.82405768    -0.09400
C564        C  0.21848719  0.42371831  0.81048926     0.29480
F565        F  0.23055578  0.44438683  0.77598571    -0.19920
H566        H  0.30500304  0.40196536  0.82039938     0.17840
H567        H  0.11086416  0.40088351  0.87177836     0.17850
F568        F  0.18800082  0.35920521  0.91663311    -0.19910
C569        C  0.22435849  0.58236852  0.80620630    -0.21340
C570        C  0.17058043  0.57355736  0.82168204    -0.09390
C571        C  0.16392771  0.57946467  0.86017315     0.29470
C572        C  0.20957688  0.59625250  0.88205261    -0.21350
C573        C  0.26228385  0.60774236  0.86591288    -0.09400
C574        C  0.26947674  0.59940013  0.82787740     0.29480
F575        F  0.32007643  0.60922796  0.81140918    -0.19920
H576        H  0.23140817  0.57760013  0.77687797     0.17840
H577        H  0.20317903  0.60250603  0.91128455     0.17850
F578        F  0.11322578  0.57030083  0.87656954    -0.19910
C579        C  0.86199151  0.58425033  0.85768325    -0.21340
C580        C  0.85502628  0.58048613  0.81916127    -0.09390
C581        C  0.80077872  0.58874720  0.80373036     0.29470
C582        C  0.75560116  0.60273546  0.82602618    -0.21350
C583        C  0.76295996  0.60890529  0.86404651    -0.09400
C584        C  0.81604729  0.59821192  0.88012644     0.29480
F585        F  0.82383129  0.60345034  0.91703928    -0.19920
H586        H  0.90299702  0.57721776  0.87030230     0.17840
H587        H  0.71460044  0.61007940  0.81337825     0.17850
F588        F  0.79104481  0.58470690  0.76689297    -0.19910
C589        C  0.79111390  0.41380047  0.87666816    -0.21340
C590        C  0.74106050  0.40312179  0.85707594    -0.09390
C591        C  0.74137938  0.41065074  0.81838488     0.29470
C592        C  0.79068726  0.42561062  0.79966387    -0.21350
C593        C  0.84186422  0.43346940  0.81862557    -0.09400
C594        C  0.84123617  0.42878480  0.85765020     0.29480
F595        F  0.88888395  0.43778703  0.87733042    -0.19920
H596        H  0.79199460  0.40824789  0.90649288     0.17840
H597        H  0.78874057  0.42958019  0.76977410     0.17850
F598        F  0.69397226  0.40174169  0.79834870    -0.19910
C599        C  0.92894186  0.64717380  0.63790463    -0.21340
C600        C  0.94134324  0.65907938  0.67494464    -0.09390
C601        C  0.93857297  0.71479986  0.68633101     0.29470
C602        C  0.92007192  0.75681548  0.66183804    -0.21350
C603        C  0.90387901  0.74417645  0.62583974    -0.09400
C604        C  0.91018077  0.68968609  0.61335304     0.29480
F605        F  0.89536659  0.67725530  0.57830728    -0.19920
H606        H  0.93171667  0.60473512  0.62832685     0.17840
H607        H  0.91596838  0.79921129  0.67143527     0.17850
F608        F  0.95158785  0.72872268  0.72142736    -0.19910
C609        C  0.08765874  0.65440158  0.63829965    -0.21340
C610        C  0.08542632  0.65972447  0.67702541    -0.09390
C611        C  0.09164902  0.71359445  0.69145516     0.29470
C612        C  0.10249647  0.75967647  0.66813727    -0.21350
C613        C  0.10851846  0.75384849  0.62993012    -0.09400
C614        C  0.09940899  0.70115395  0.61485239     0.29480
F615        F  0.10502875  0.69434867  0.57791972    -0.19920
H616        H  0.08191775  0.61388547  0.62629348     0.17840
H617        H  0.10998267  0.79985995  0.68030321     0.17850
F618        F  0.08980861  0.72198279  0.72840500    -0.19910
C619        C  0.09587235  0.29977735  0.62397026    -0.21340
C620        C  0.10216080  0.24693498  0.64179987    -0.09390
C621        C  0.09381647  0.24194420  0.68015646     0.29470
C622        C  0.08162350  0.28902176  0.70053397    -0.21350
C623        C  0.07774688  0.34264907  0.68337713    -0.09400
C624        C  0.08391312  0.34750459  0.64457196     0.29480
F625        F  0.07929216  0.39810730  0.62662294    -0.19920
H626        H  0.10215548  0.30431334  0.59436998     0.17840
H627        H  0.07629557  0.28329234  0.73014521     0.17850
F628        F  0.09856794  0.19130085  0.69812050    -0.19910
C629        C  0.91949889  0.30019413  0.69649656    -0.21340
C630        C  0.93057810  0.35343846  0.68075820    -0.09390
C631        C  0.92628163  0.36202759  0.64208576     0.29470
C632        C  0.90810174  0.31858219  0.62006835    -0.21350
C633        C  0.89390603  0.26669188  0.63646096    -0.09400
C634        C  0.90133461  0.25724452  0.67464919     0.29480
F635        F  0.88999999  0.20654735  0.69094059    -0.19920
H636        H  0.92358570  0.29186920  0.72599772     0.17840
H637        H  0.90318524  0.32594027  0.59052822     0.17850
F638        F  0.93847905  0.41233911  0.62564081    -0.19910
loop_ 
_geom_bond_atom_site_label_1 
_geom_bond_atom_site_label_2 
_geom_bond_distance 
_geom_bond_site_symmetry_2 
_ccdc_geom_bond_type 
O1            C9   1.272       .  A
O1          Co21   2.014   1_655  S
O2           C10   1.271       .  A
O2          Co22   2.018       .  S
O3           C11   1.260       .  A
O3          Co23   1.948       .  S
O4           C12   1.270       .  A
O4          Co24   1.984       .  S
O5           C11   1.272       .  A
O5          Co22   2.020   1_655  S
O6           C12   1.275       .  A
O6          Co21   2.024       .  S
O7           C10   1.270       .  A
O7          Co24   1.992       .  S
O8            C9   1.262       .  A
O8          Co23   1.958       .  S
C9          C630   1.472       .  S
C10         C610   1.493       .  S
C11         C600   1.469       .  S
C12         C623   1.490       .  S
O13          C26   1.271       .  A
O13         Co21   1.980       .  S
O14          C27   1.266       .  A
O14         Co22   1.974   1_655  S
O15          C28   1.271       .  A
O15         Co23   2.016       .  S
O16          C29   1.275       .  A
O16         Co24   2.030       .  S
O17          C29   1.268       .  A
O17         Co22   1.980       .  S
O18          C28   1.274       .  A
O18         Co21   2.007   1_655  S
O19          C26   1.271       .  A
O19         Co24   2.005       .  S
O20          C27   1.270       .  A
O20         Co23   2.008       .  S
Co21         O25   2.101       .  S
Co22         O25   2.096       .  S
Co23         O25   2.088   1_655  S
Co24         O25   2.101       .  S
C26         C563   1.480       .  S
C27         C580   1.478       .  S
C28         C593   1.501       .  S
C29         C570   1.493       .  S
C30         C590   1.497       .  S
C30          C31   1.402       .  A
C30          C35   1.411       .  A
C31          C32   1.402       .  A
C31          H36   1.085       .  S
C32         C553   1.486       .  S
C32          C33   1.407       .  A
C33          C34   1.411       .  A
C33          H37   1.083       .  S
C34         C158   1.490       .  S
C34          C35   1.421       .  A
C35          H38   1.084       .  S
O39          C47   1.270       .  A
O39         Co59   1.987   1_545  S
O40          C48   1.261       .  A
O40         Co60   1.950       .  S
O41          C49   1.270       .  A
O41         Co61   2.013       .  S
O42          C50   1.273       .  A
O42         Co62   2.023       .  S
O43          C49   1.260       .  A
O43         Co60   1.956   1_545  S
O44          C50   1.269       .  A
O44         Co59   1.991       .  S
O45          C48   1.272       .  A
O45         Co62   2.022       .  S
O46          C47   1.274       .  A
O46         Co61   2.024       .  S
C47         C550   1.493       .  S
C48         C490   1.470       .  S
C49         C480   1.472       .  S
C50         C503   1.494       .  S
O51          C64   1.275       .  A
O51         Co59   2.030       .  S
O52          C65   1.272       .  A
O52         Co60   2.024   1_545  S
O53          C66   1.267       .  A
O53         Co61   1.969       .  S
O54          C67   1.266       .  A
O54         Co62   1.975       .  S
O55          C67   1.270       .  A
O55         Co60   2.007       .  S
O56          C66   1.273       .  A
O56         Co59   2.014   1_545  S
O57          C64   1.267       .  A
O57         Co62   1.979       .  S
O58          C65   1.270       .  A
O58         Co61   1.990       .  S
Co59         O63   2.106       .  S
Co60         O63   2.094       .  S
Co61         O63   2.101   1_545  S
Co62         O63   2.098       .  S
C64         C520   1.490       .  S
C65         C540   1.491       .  S
C66         C513   1.474       .  S
C67         C530   1.475       .  S
C68         C493   1.458       .  S
C68          C69   1.397       .  A
C68          C73   1.399       .  A
C69          C70   1.397       .  A
C69          H74   1.084       .  S
C70         C159   1.471       .  S
C70          C71   1.420       .  A
C71          C72   1.405       .  A
C71          H75   1.084       .  S
C72         C573   1.487       .  S
C72          C73   1.396       .  A
C73          H76   1.085       .  S
C77         C500   1.483       .  S
C77          C78   1.397       .  A
C77          C82   1.410       .  A
C78          C79   1.396       .  A
C78          H83   1.085       .  S
C79         C583   1.470       .  S
C79          C80   1.396       .  A
C80          C81   1.407       .  A
C80          H84   1.084       .  S
C81         C157   1.480       .  S
C81          C82   1.419       .  A
C82          H85   1.083       .  S
C86         C560   1.470       .  S
C86          C87   1.394       .  A
C86          C91   1.395       .  A
C87          C88   1.400       .  A
C87          H92   1.085       .  S
C88         C483   1.464       .  S
C88          C89   1.401       .  A
C89          C90   1.400       .  A
C89          H93   1.083       .  S
C90         C156   1.464       .  S
C90          C91   1.410       .  A
C91          H94   1.085       .  S
C95         C543   1.487       .  S
C95          C96   1.399       .  A
C95         C100   1.408       .  A
C96          C97   1.403       .  A
C96         H101   1.085       .  S
C97         C620   1.481       .  S
C97          C98   1.407       .  A
C98          C99   1.409       .  A
C98         H102   1.083       .  S
C99         C317   1.485       .  S
C99         C100   1.417       .  A
C100        H103   1.084       .  S
C104        C613   1.481       .  S
C104        C105   1.396       .  A
C104        C109   1.406       .  A
C105        C106   1.398       .  A
C105        H110   1.085       .  S
C106        C533   1.479       .  S
C106        C107   1.399       .  A
C107        C108   1.408       .  A
C107        H111   1.083       .  S
C108        C316   1.479       .  S
C108        C109   1.417       .  A
C109        H112   1.083       .  S
C113        C510   1.468       .  S
C113        C114   1.393       .  A
C113        C118   1.394       .  A
C114        C115   1.402       .  A
C114        H119   1.085       .  S
C115        C633   1.465       .  S
C115        C116   1.402       .  A
C116        C117   1.399       .  A
C116        H120   1.084       .  S
C117        C315   1.463       .  S
C117        C118   1.408       .  A
C118        H121   1.085       .  S
C122        C603   1.458       .  S
C122        C123   1.395       .  A
C122        C127   1.398       .  A
C123        C124   1.396       .  A
C123        H128   1.085       .  S
C124        C318   1.469       .  S
C124        C125   1.421       .  A
C125        C126   1.406       .  A
C125        H129   1.084       .  S
C126        C523   1.491       .  S
C126        C127   1.397       .  A
C127        H130   1.085       .  S
O131        C139   1.243       .  A
O131       Co151   1.937       .  S
O132        C140   1.263       .  A
O132       Co152   1.967       .  S
O133        C141   1.294       .  A
O133       Co153   2.089   1_554  S
O134        C142   1.268       .  A
O134       Co154   2.016   1_554  S
O135        C141   1.267       .  A
O135       Co152   1.898       .  S
O136        C142   1.253       .  A
O136       Co151   1.939       .  S
O137        C140   1.280       .  A
O137       Co154   2.046   1_554  S
O138        C139   1.267       .  A
O138       Co153   2.042   1_554  S
C139        C171   1.475       .  S
C140        C162   1.487       .  S
C141        C180   1.479       .  S
C142        C247   1.463       .  S
O143        C156   1.268       .  A
O143       Co151   2.022   1_556  S
O144        C157   1.292       .  A
O144       Co152   2.082   1_556  S
O145        C158   1.264       .  A
O145       Co153   1.972       .  S
O146        C159   1.241       .  A
O146       Co154   1.934       .  S
O147        C159   1.264       .  A
O147       Co152   2.036   1_556  S
O148        C158   1.278       .  A
O148       Co151   2.043   1_556  S
O149        C156   1.251       .  A
O149       Co154   1.934       .  S
O150        C157   1.270       .  A
O150       Co153   1.905       .  S
Co151       O155   2.049   1_554  S
Co152       O155   2.045   1_554  S
Co153       O155   2.048       .  S
Co154       O155   2.039       .  S
C160        C470   1.490       .  S
C160        C161   1.410       .  A
C160        C165   1.394       .  A
C161        C162   1.423       .  A
C161        H166   1.083       .  S
C162        C163   1.410       .  A
C163        C164   1.405       .  A
C163        H167   1.082       .  S
C164        C460   1.482       .  S
C164        C165   1.399       .  A
C165        H168   1.086       .  S
C169        C450   1.470       .  S
C169        C170   1.405       .  A
C169        C174   1.403       .  A
C170        C171   1.401       .  A
C170        H175   1.084       .  S
C171        C172   1.417       .  A
C172        C173   1.403       .  A
C172        H176   1.084       .  S
C173        C443   1.483       .  S
C173        C174   1.394       .  A
C174        H177   1.084       .  S
C178        C433   1.466       .  S
C178        C179   1.395       .  A
C178        C183   1.394       .  A
C179        C180   1.407       .  A
C179        H184   1.084       .  S
C180        C181   1.415       .  A
C181        C182   1.408       .  A
C181        H185   1.083       .  S
C182        C420   1.478       .  S
C182        C183   1.399       .  A
C183        H186   1.085       .  S
O187        C195   1.271       .  A
O187       Co207   2.023       .  S
O188        C196   1.269       .  A
O188       Co208   2.022       .  S
O189        C197   1.263       .  A
O189       Co209   1.969   1_545  S
O190        C198   1.269       .  A
O190       Co210   1.971       .  S
O191        C197   1.274       .  A
O191       Co208   2.029       .  S
O192        C198   1.274       .  A
O192       Co207   2.015       .  S
O193        C196   1.266       .  A
O193       Co210   1.979   1_545  S
O194        C195   1.266       .  A
O194       Co209   1.989       .  S
C195        C473   1.495       .  S
C196        C440   1.488       .  S
C197        C370   1.467       .  S
C198        C430   1.478       .  S
O199        C212   1.266       .  A
O199       Co207   1.976       .  S
O200        C213   1.255       .  A
O200       Co208   1.944       .  S
O201        C214   1.274       .  A
O201       Co209   2.027       .  S
O202        C215   1.274       .  A
O202       Co210   2.035   1_545  S
O203        C215   1.257       .  A
O203       Co208   1.954       .  S
O204        C214   1.268       .  A
O204       Co207   1.978       .  S
O205        C212   1.267       .  A
O205       Co210   2.007       .  S
O206        C213   1.272       .  A
O206       Co209   2.037   1_545  S
Co207       O211   2.105       .  S
Co208       O211   2.093   1_545  S
Co209       O211   2.104       .  S
Co210       O211   2.105       .  S
C212        C380   1.478       .  S
C213        C400   1.474       .  S
C214        C413   1.487       .  S
C215        C390   1.459       .  S
O216        C224   1.267       .  A
O216       Co236   1.963       .  S
O217        C225   1.263       .  A
O217       Co237   1.969       .  S
O218        C226   1.273       .  A
O218       Co238   2.024       .  S
O219        C227   1.270       .  A
O219       Co239   2.015   1_455  S
O220        C226   1.268       .  A
O220       Co237   1.987       .  S
O221        C227   1.268       .  A
O221       Co236   1.982       .  S
O222        C225   1.272       .  A
O222       Co239   2.019       .  S
O223        C224   1.274       .  A
O223       Co238   2.018   1_455  S
C224        C330   1.475       .  S
C225        C353   1.461       .  S
C226        C340   1.493       .  S
C227        C360   1.489       .  S
O228        C241   1.271       .  A
O228       Co236   2.015       .  S
O229        C242   1.272       .  A
O229       Co237   2.018       .  S
O230        C243   1.267       .  A
O230       Co238   1.983   1_455  S
O231        C244   1.259       .  A
O231       Co239   1.950       .  S
O232        C244   1.274       .  A
O232       Co237   2.033       .  S
O233        C243   1.270       .  A
O233       Co236   2.008       .  S
O234        C241   1.262       .  A
O234       Co239   1.956   1_455  S
O235        C242   1.270       .  A
O235       Co238   1.987       .  S
Co236       O240   2.099   1_455  S
Co237       O240   2.099       .  S
Co238       O240   2.104       .  S
Co239       O240   2.094       .  S
C241        C320   1.468       .  S
C242        C423   1.491       .  S
C243        C463   1.482       .  S
C244        C453   1.475       .  S
C245        C323   1.457       .  S
C245        C246   1.392       .  A
C245        C250   1.398       .  A
C246        C247   1.393       .  A
C246        H251   1.083       .  S
C247        C248   1.410       .  A
C248        C249   1.412       .  A
C248        H252   1.080       .  S
C249        C373   1.508       .  S
C249        C250   1.407       .  A
C250        H253   1.079       .  S
C254        C403   1.473       .  S
C254        C255   1.402       .  A
C254        C259   1.406       .  A
C255        C256   1.393       .  A
C255        H260   1.085       .  S
C256        C363   1.480       .  S
C256        C257   1.402       .  A
C257        C258   1.416       .  A
C257        H261   1.084       .  S
C258        C298   1.473       .  S
C258        C259   1.402       .  A
C259        H262   1.084       .  S
C263        C393   1.506       .  S
C263        C264   1.410       .  A
C263        C268   1.415       .  A
C264        C265   1.400       .  A
C264        H269   1.078       .  S
C265        C350   1.498       .  S
C265        C266   1.399       .  A
C266        C267   1.403       .  A
C266        H270   1.079       .  S
C267        C301   1.468       .  S
C267        C268   1.400       .  A
C268        H271   1.074       .  S
C272        C333   1.463       .  S
C272        C273   1.394       .  A
C272        C277   1.395       .  A
C273        C274   1.397       .  A
C273        H278   1.085       .  S
C274        C410   1.474       .  S
C274        C275   1.408       .  A
C275        C276   1.414       .  A
C275        H279   1.083       .  S
C276        C300   1.478       .  S
C276        C277   1.406       .  A
C277        H280   1.084       .  S
C281        C343   1.486       .  S
C281        C282   1.396       .  A
C281        C286   1.411       .  A
C282        C283   1.393       .  A
C282        H287   1.086       .  S
C283        C383   1.466       .  S
C283        C284   1.401       .  A
C284        C285   1.406       .  A
C284        H288   1.083       .  S
C285        C299   1.484       .  S
C285        C286   1.421       .  A
C286        H289   1.083       .  S
O290        C298   1.245       .  A
O290       Co310   1.942   1_455  S
O291        C299   1.264       .  A
O291       Co311   1.965   1_655  S
O292        C300   1.293       .  A
O292       Co312   2.089       .  S
O293        C301   1.268       .  A
O293       Co313   2.024       .  S
O294        C300   1.268       .  A
O294       Co311   1.897       .  S
O295        C301   1.255       .  A
O295       Co310   1.939       .  S
O296        C299   1.280       .  A
O296       Co313   2.043   1_565  S
O297        C298   1.266       .  A
O297       Co312   2.037   1_545  S
O302        C315   1.268       .  A
O302       Co310   2.022       .  S
O303        C316   1.292       .  A
O303       Co311   2.083       .  S
O304        C317   1.264       .  A
O304       Co312   1.968   1_545  S
O305        C318   1.242       .  A
O305       Co313   1.934   1_565  S
O306        C318   1.264       .  A
O306       Co311   2.032   1_655  S
O307        C317   1.278       .  A
O307       Co310   2.041   1_455  S
O308        C315   1.251       .  A
O308       Co313   1.934       .  S
O309        C316   1.269       .  A
O309       Co312   1.903       .  S
Co310       O314   2.041       .  S
Co311       O314   2.040   1_465  S
Co312       O314   2.041   1_465  S
Co313       O314   2.039       .  S
C319        C320   1.406       .  A
C319        C324   1.391       .  A
C319        H326   1.083       .  S
C320        C321   1.406       .  A
C321        C322   1.394       .  A
C321        F328   1.357       .  S
C322        C323   1.399       .  A
C322        H327   1.083       .  S
C323        C324   1.399       .  A
C324        F325   1.358       .  S
C329        C330   1.407       .  A
C329        C334   1.399       .  A
C329        H336   1.082       .  S
C330        C331   1.410       .  A
C331        C332   1.388       .  A
C331        F338   1.358       .  S
C332        C333   1.397       .  A
C332        H337   1.083       .  S
C333        C334   1.401       .  A
C334        F335   1.357       .  S
C339        C340   1.407       .  A
C339        C344   1.394       .  A
C339        H346   1.083       .  S
C340        C341   1.412       .  A
C341        C342   1.410       .  A
C341        F348   1.357       .  S
C342        C343   1.406       .  A
C342        H347   1.082       .  S
C343        C344   1.405       .  A
C344        F345   1.358       .  S
C349        C350   1.414       .  A
C349        C354   1.391       .  A
C349        H356   1.082       .  S
C350        C351   1.415       .  A
C351        C352   1.398       .  A
C351        F358   1.355       .  S
C352        C353   1.396       .  A
C352        H357   1.075       .  S
C353        C354   1.396       .  A
C354        F355   1.358       .  S
C359        C360   1.408       .  A
C359        C364   1.395       .  A
C359        H366   1.083       .  S
C360        C361   1.411       .  A
C361        C362   1.407       .  A
C361        F368   1.357       .  S
C362        C363   1.404       .  A
C362        H367   1.083       .  S
C363        C364   1.403       .  A
C364        F365   1.358       .  S
C369        C370   1.395       .  A
C369        C374   1.395       .  A
C369        H376   1.083       .  S
C370        C371   1.397       .  A
C371        C372   1.399       .  A
C371        F378   1.353       .  S
C372        C373   1.415       .  A
C372        H377   1.078       .  S
C373        C374   1.419       .  A
C374        F375   1.356       .  S
C379        C380   1.408       .  A
C379        C384   1.403       .  A
C379        H386   1.083       .  S
C380        C381   1.410       .  A
C381        C382   1.389       .  A
C381        F388   1.358       .  S
C382        C383   1.397       .  A
C382        H387   1.084       .  S
C383        C384   1.403       .  A
C384        F385   1.357       .  S
C389        C390   1.395       .  A
C389        C394   1.397       .  A
C389        H396   1.076       .  S
C390        C391   1.391       .  A
C391        C392   1.389       .  A
C391        F398   1.358       .  S
C392        C393   1.419       .  A
C392        H397   1.079       .  S
C393        C394   1.417       .  A
C394        F395   1.352       .  S
C399        C400   1.409       .  A
C399        C404   1.397       .  A
C399        H406   1.083       .  S
C400        C401   1.404       .  A
C401        C402   1.391       .  A
C401        F408   1.357       .  S
C402        C403   1.405       .  A
C402        H407   1.083       .  S
C403        C404   1.401       .  A
C404        F405   1.357       .  S
C409        C410   1.399       .  A
C409        C414   1.395       .  A
C409        H416   1.083       .  S
C410        C411   1.405       .  A
C411        C412   1.405       .  A
C411        F418   1.357       .  S
C412        C413   1.407       .  A
C412        H417   1.083       .  S
C413        C414   1.411       .  A
C414        F415   1.357       .  S
C419        C420   1.399       .  A
C419        C424   1.392       .  A
C419        H426   1.084       .  S
C420        C421   1.405       .  A
C421        C422   1.408       .  A
C421        F428   1.357       .  S
C422        C423   1.409       .  A
C422        H427   1.083       .  S
C423        C424   1.413       .  A
C424        F425   1.358       .  S
C429        C430   1.407       .  A
C429        C434   1.402       .  A
C429        H436   1.082       .  S
C430        C431   1.411       .  A
C431        C432   1.388       .  A
C431        F438   1.358       .  S
C432        C433   1.396       .  A
C432        H437   1.084       .  S
C433        C434   1.402       .  A
C434        F435   1.357       .  S
C439        C440   1.407       .  A
C439        C444   1.399       .  A
C439        H446   1.083       .  S
C440        C441   1.410       .  A
C441        C442   1.406       .  A
C441        F448   1.357       .  S
C442        C443   1.404       .  A
C442        H447   1.083       .  S
C443        C444   1.404       .  A
C444        F445   1.358       .  S
C449        C450   1.399       .  A
C449        C454   1.397       .  A
C449        H456   1.083       .  S
C450        C451   1.405       .  A
C451        C452   1.391       .  A
C451        F458   1.358       .  S
C452        C453   1.402       .  A
C452        H457   1.083       .  S
C453        C454   1.412       .  A
C454        F455   1.357       .  S
C459        C460   1.402       .  A
C459        C464   1.384       .  A
C459        H466   1.084       .  S
C460        C461   1.407       .  A
C461        C462   1.409       .  A
C461        F468   1.357       .  S
C462        C463   1.409       .  A
C462        H467   1.083       .  S
C463        C464   1.408       .  A
C464        F465   1.358       .  S
C469        C470   1.406       .  A
C469        C474   1.412       .  A
C469        H476   1.082       .  S
C470        C471   1.406       .  A
C471        C472   1.394       .  A
C471        F478   1.358       .  S
C472        C473   1.406       .  A
C472        H477   1.083       .  S
C473        C474   1.413       .  A
C474        F475   1.357       .  S
C479        C480   1.403       .  A
C479        C484   1.387       .  A
C479        H486   1.083       .  S
C480        C481   1.410       .  A
C481        C482   1.398       .  A
C481        F488   1.357       .  S
C482        C483   1.399       .  A
C482        H487   1.083       .  S
C483        C484   1.403       .  A
C484        F485   1.358       .  S
C489        C490   1.408       .  A
C489        C494   1.396       .  A
C489        H496   1.083       .  S
C490        C491   1.407       .  A
C491        C492   1.387       .  A
C491        F498   1.358       .  S
C492        C493   1.399       .  A
C492        H497   1.084       .  S
C493        C494   1.398       .  A
C494        F495   1.357       .  S
C499        C500   1.406       .  A
C499        C504   1.411       .  A
C499        H506   1.083       .  S
C500        C501   1.403       .  A
C501        C502   1.392       .  A
C501        F508   1.358       .  S
C502        C503   1.407       .  A
C502        H507   1.082       .  S
C503        C504   1.412       .  A
C504        F505   1.357       .  S
C509        C510   1.399       .  A
C509        C514   1.392       .  A
C509        H516   1.084       .  S
C510        C511   1.402       .  A
C511        C512   1.400       .  A
C511        F518   1.357       .  S
C512        C513   1.405       .  A
C512        H517   1.083       .  S
C513        C514   1.409       .  A
C514        F515   1.358       .  S
C519        C520   1.410       .  A
C519        C524   1.409       .  A
C519        H526   1.083       .  S
C520        C521   1.409       .  A
C521        C522   1.395       .  A
C521        F528   1.358       .  S
C522        C523   1.405       .  A
C522        H527   1.083       .  S
C523        C524   1.407       .  A
C524        F525   1.357       .  S
C529        C530   1.407       .  A
C529        C534   1.404       .  A
C529        H536   1.083       .  S
C530        C531   1.407       .  A
C531        C532   1.384       .  A
C531        F538   1.358       .  S
C532        C533   1.402       .  A
C532        H537   1.084       .  S
C533        C534   1.407       .  A
C534        F535   1.357       .  S
C539        C540   1.409       .  A
C539        C544   1.402       .  A
C539        H546   1.082       .  S
C540        C541   1.407       .  A
C541        C542   1.407       .  A
C541        F548   1.357       .  S
C542        C543   1.407       .  A
C542        H547   1.082       .  S
C543        C544   1.403       .  A
C544        F545   1.357       .  S
C549        C550   1.407       .  A
C549        C554   1.393       .  A
C549        H556   1.082       .  S
C550        C551   1.412       .  A
C551        C552   1.410       .  A
C551        F558   1.357       .  S
C552        C553   1.406       .  A
C552        H557   1.083       .  S
C553        C554   1.404       .  A
C554        F555   1.358       .  S
C559        C560   1.397       .  A
C559        C564   1.389       .  A
C559        H566   1.084       .  S
C560        C561   1.404       .  A
C561        C562   1.403       .  A
C561        F568   1.356       .  S
C562        C563   1.407       .  A
C562        H567   1.083       .  S
C563        C564   1.413       .  A
C564        F565   1.358       .  S
C569        C570   1.407       .  A
C569        C574   1.396       .  A
C569        H576   1.083       .  S
C570        C571   1.412       .  A
C571        C572   1.408       .  A
C571        F578   1.357       .  S
C572        C573   1.405       .  A
C572        H577   1.083       .  S
C573        C574   1.406       .  A
C574        F575   1.358       .  S
C579        C580   1.408       .  A
C579        C584   1.403       .  A
C579        H586   1.083       .  S
C580        C581   1.411       .  A
C581        C582   1.385       .  A
C581        F588   1.358       .  S
C582        C583   1.398       .  A
C582        H587   1.084       .  S
C583        C584   1.403       .  A
C584        F585   1.357       .  S
C589        C590   1.410       .  A
C589        C594   1.416       .  A
C589        H596   1.082       .  S
C590        C591   1.405       .  A
C591        C592   1.394       .  A
C591        F598   1.358       .  S
C592        C593   1.410       .  A
C592        H597   1.083       .  S
C593        C594   1.412       .  A
C594        F595   1.356       .  S
C599        C600   1.409       .  A
C599        C604   1.396       .  A
C599        H606   1.083       .  S
C600        C601   1.406       .  A
C601        C602   1.385       .  A
C601        F608   1.358       .  S
C602        C603   1.399       .  A
C602        H607   1.084       .  S
C603        C604   1.398       .  A
C604        F605   1.357       .  S
C609        C610   1.411       .  A
C609        C614   1.410       .  A
C609        H616   1.083       .  S
C610        C611   1.412       .  A
C611        C612   1.391       .  A
C611        F618   1.358       .  S
C612        C613   1.400       .  A
C612        H617   1.084       .  S
C613        C614   1.406       .  A
C614        F615   1.357       .  S
C619        C620   1.405       .  A
C619        C624   1.408       .  A
C619        H626   1.083       .  S
C620        C621   1.402       .  A
C621        C622   1.392       .  A
C621        F628   1.358       .  S
C622        C623   1.407       .  A
C622        H627   1.082       .  S
C623        C624   1.412       .  A
C624        F625   1.357       .  S
C629        C630   1.403       .  A
C629        C634   1.386       .  A
C629        H636   1.083       .  S
C630        C631   1.410       .  A
C631        C632   1.398       .  A
C631        F638   1.357       .  S
C632        C633   1.400       .  A
C632        H637   1.083       .  S
C633        C634   1.402       .  A
C634        F635   1.358       .  S
