geometry optimzed in LAMMPS
_audit_creation_date              2020-12-01 
_audit_creation_method            'lammps2cif' 
_symmetry_space_group_name_H-M    'P1' 
_symmetry_Int_Tables_number       1 
_symmetry_cell_setting            triclinic 
loop_ 
_symmetry_equiv_pos_as_xyz 
  x,y,z 
_cell_length_a                    22.79319461 
_cell_length_b                    22.16671566943115 
_cell_length_c                    76.51982110612022 
_cell_angle_alpha                 89.89481129866472 
_cell_angle_beta                  90.43591494440098 
_cell_angle_gamma                 91.2437890833993 
loop_ 
_atom_site_label 
_atom_site_type_symbol 
_atom_site_fract_x 
_atom_site_fract_y 
_atom_site_fract_z 
_atom_site_charge 
C1          C  0.47800867  0.97973480  0.25462577    -0.01900
N2          N  0.94244784  0.50172042  0.99552965    -0.36000
N3          N  0.02845983  0.49961985  0.02374997    -0.56600
N4          N  0.12422602  0.50237481  0.99793015    -0.36000
N5          N  0.03823082  0.49466744  0.96985977    -0.56600
C6          C  0.90621065  0.49268707  0.00934834     0.27600
C7          C  0.91112600  0.49072491  0.98072330     0.27600
C8          C  0.15494805  0.49413744  0.01290768     0.27600
C9          C  0.16019805  0.49000815  0.98444434     0.27600
C10         C  0.97976174  0.51238014  0.03299832     0.36200
C11         C  0.07493297  0.51505490  0.03404882     0.36200
C12         C  0.99222599  0.49900573  0.95868819     0.36200
C13         C  0.08737307  0.49803123  0.96000017     0.36200
C14         C  0.85085900  0.47601211  0.00317029    -0.21300
C15         C  0.85384918  0.47521051  0.98514843    -0.21300
C16         C  0.21133672  0.47675394  0.00888977    -0.21300
C17         C  0.21507571  0.47565157  0.99103652    -0.21300
C18         C  0.99546043  0.53586261  0.04916824    -0.22400
C19         C  0.05553322  0.53797640  0.04978111    -0.22400
C20         C  0.01236863  0.50397477  0.94166201    -0.22400
C21         C  0.07226553  0.50270236  0.94247857    -0.22400
C22         C  0.92112810  0.50207545  0.02727199    -0.17700
C23         C  0.93208096  0.49622744  0.96331941    -0.17700
C24         C  0.14562859  0.49322357  0.96639603    -0.17700
C25         C  0.13458572  0.50521995  0.03003541    -0.17700
H26         H  0.81216104  0.46582878  0.01082727     0.15200
H27         H  0.81796712  0.46409670  0.97629779     0.15200
H28         H  0.24679506  0.46640172  0.01779121     0.15200
H29         H  0.25443526  0.46567312  0.98394587     0.15200
H30         H  0.96666509  0.55101388  0.05936806     0.13500
H31         H  0.08192665  0.55497670  0.06058245     0.13500
H32         H  0.98674692  0.50736274  0.92975540     0.13500
H33         H  0.10101496  0.50430961  0.93130810     0.13500
H34         H  0.98474636  0.52063862  0.99601340     0.26700
H35         H  0.08282889  0.52124526  0.99703211     0.26700
C36         C  0.46782309  0.98163624  0.74784871    -0.01900
C37         C  0.04206752  0.52117810  0.75019433    -0.01900
N38         N  0.50480418  0.08755521  0.99713172    -0.36000
N39         N  0.51096606  0.98544382  0.97271793    -0.56600
N40         N  0.51757358  0.90286165  0.00222744    -0.36000
N41         N  0.50978773  0.00465144  0.02660571    -0.56600
C42         C  0.50264405  0.11814531  0.98179304     0.27600
C43         C  0.50229493  0.12838006  0.01031420     0.27600
C44         C  0.50810225  0.86304692  0.98902344     0.27600
C45         C  0.50790382  0.87285268  0.01738763     0.27600
C46         C  0.51759589  0.03127655  0.96116523     0.36200
C47         C  0.52184911  0.93395013  0.96397619     0.36200
C48         C  0.50877488  0.05675693  0.03577997     0.36200
C49         C  0.51400015  0.95941864  0.03838363     0.36200
C50         C  0.49807234  0.17928862  0.98529595    -0.21300
C51         C  0.49797996  0.18569996  0.00320338    -0.21300
C52         C  0.49245373  0.80711915  0.99592147    -0.21300
C53         C  0.49299421  0.81312117  0.01378644    -0.21300
C54         C  0.53228972  0.00836083  0.94493202    -0.22400
C55         C  0.53598411  0.94715311  0.94679547    -0.22400
C56         C  0.51066582  0.04405031  0.05354744    -0.22400
C57         C  0.51445549  0.98271069  0.05517363    -0.22400
C58         C  0.50864237  0.09325750  0.96476895    -0.17700
C59         C  0.50596546  0.11578456  0.02854751    -0.17700
C60         C  0.51380916  0.89708899  0.03442830    -0.17700
C61         C  0.51595897  0.87496459  0.97098012    -0.17700
H62         H  0.49690672  0.21595582  0.97595606     0.15200
H63         H  0.49617891  0.22806213  0.01015985     0.15200
H64         H  0.48189289  0.76602174  0.98885284     0.15200
H65         H  0.48309725  0.77745237  0.02304463     0.15200
H66         H  0.53982619  0.03264765  0.93287440     0.13500
H67         H  0.54749701  0.91614361  0.93654179     0.13500
H68         H  0.50902813  0.07542415  0.06433241     0.13500
H69         H  0.51607667  0.95804586  0.06738230     0.13500
H70         H  0.50941869  0.04220585  0.99841693     0.26700
H71         H  0.53606521  0.94573901  0.00110541     0.26700
O72         O  0.57558799  0.53508847  0.87952642    -0.79500
O73         O  0.47756294  0.46870297  0.80420783    -0.79600
O74         O  0.52027538  0.60215775  0.82668794    -0.79600
O75         O  0.43626640  0.50502269  0.86101523    -0.79500
O76         O  0.56034017  0.55497047  0.80491842    -0.79600
O77         O  0.49206606  0.45403159  0.87893260    -0.79600
O78         O  0.43006171  0.51233904  0.82510360    -0.79500
O79         O  0.52642161  0.59284444  0.86185345    -0.79600
C80         C  0.54391028  0.58078696  0.87705458     1.10100
C81         C  0.43263500  0.49706527  0.80931540     1.10000
C82         C  0.53309276  0.60011273  0.81078755     1.10200
C83         C  0.44713807  0.48589869  0.87622700     1.10000
O84         O  0.56202854  0.37458406  0.85669627    -0.79600
O85         O  0.64677910  0.47186265  0.82055138    -0.79600
O86         O  0.65017774  0.55862938  0.85886716    -0.79600
O87         O  0.46380179  0.38347161  0.82325456    -0.79500
O88         O  0.55931636  0.38272305  0.82052264    -0.79600
O89         O  0.65022443  0.46059909  0.85715708    -0.79600
O90         O  0.46704358  0.37836216  0.85799808    -0.79500
O91         O  0.64427070  0.56930535  0.82425852    -0.79600
Co92       Co  0.56966029  0.45658920  0.86583336     1.51500
Co93       Co  0.56099807  0.46950404  0.81489720     1.51700
Co94       Co  0.58040122  0.57474504  0.84280898     1.51600
Co95       Co  0.45538878  0.44987736  0.84173158     1.51500
O96         O  0.54145938  0.48782255  0.84129775    -1.41500
C97         C  0.51412851  0.35084343  0.86134182     1.10100
C98         C  0.67227713  0.52297788  0.81961081     1.10200
C99         C  0.67604580  0.50906274  0.86145769     1.10100
C100        C  0.51010724  0.35629523  0.81872158     1.10100
O101        O  0.53401547  0.55744115  0.19364525    -0.79500
O102        O  0.47547970  0.47720517  0.12036996    -0.79600
O103        O  0.60477619  0.62213389  0.14435390    -0.79600
O104        O  0.39346448  0.49361356  0.17407435    -0.79500
O105        O  0.52764177  0.57808978  0.13199509    -0.79600
O106        O  0.44746590  0.46817680  0.19673096    -0.79600
O107        O  0.41038843  0.50426916  0.13915484    -0.79500
O108        O  0.51685030  0.60346210  0.16848376    -0.79600
C109        C  0.51829196  0.60408196  0.18505843     1.10100
C110        C  0.42615204  0.49832161  0.12354440     1.10000
C111        C  0.56531966  0.62223738  0.13260451     1.10200
C112        C  0.39894455  0.48614965  0.19036887     1.10000
O113        O  0.52878876  0.37978996  0.18378399    -0.79600
O114        O  0.58631156  0.49168037  0.11548465    -0.79600
O115        O  0.63026052  0.55589591  0.17396864    -0.79600
O116        O  0.45950125  0.38294102  0.13806723    -0.79500
O117        O  0.55513942  0.39956462  0.13759679    -0.79600
O118        O  0.61632653  0.46300408  0.18230438    -0.79600
O119        O  0.43805062  0.37209444  0.17374078    -0.79500
O120        O  0.63474903  0.50657577  0.13994670    -0.79600
Co121      Co  0.53132622  0.46800364  0.18721914     1.51500
Co122      Co  0.54328884  0.48713544  0.13653566     1.51700
Co123      Co  0.56945396  0.55163102  0.15480187     1.51600
Co124      Co  0.43109712  0.44172340  0.15655150     1.51500
O125        O  0.51256252  0.48164257  0.16117837    -1.41500
C126        C  0.48176756  0.34942203  0.18163637     1.10100
C127        C  0.63485005  0.49926501  0.12304764     1.10200
C128        C  0.64893401  0.50944135  0.18163053     1.10100
C129        C  0.51058267  0.36885391  0.13278805     1.10100
O130        O  0.95728535  0.11812507  0.67992480    -0.79500
O131        O  0.85825040  0.05339445  0.64408598    -0.79600
O132        O  0.04132045  0.13519251  0.64204014    -0.79600
O133        O  0.86721498  0.93787305  0.67437739    -0.79500
O134        O  0.94656639  0.13936723  0.64494431    -0.79600
O135        O  0.86945490  0.03403062  0.68029305    -0.79600
O136        O  0.85594602  0.95634006  0.64003153    -0.79500
O137        O  0.05186440  0.11927900  0.67576807    -0.79600
C138        C  0.00590218  0.14529888  0.68106548     1.10100
C139        C  0.83155437  0.00719011  0.63843314     1.10000
C140        C  0.99443842  0.16475649  0.64084879     1.10200
C141        C  0.84157257  0.98423502  0.68019394     1.10000
O142        O  0.95563405  0.94546162  0.69260936    -0.79600
O143        O  0.01060463  0.06736418  0.61943557    -0.79600
O144        O  0.08150296  0.99049882  0.66963535    -0.79600
O145        O  0.97702442  0.91961422  0.63397728    -0.79500
O146        O  0.92733586  0.98529350  0.61879205    -0.79600
O147        O  0.04218427  0.02771574  0.69297989    -0.79600
O148        O  0.98957926  0.90025724  0.66954010    -0.79500
O149        O  0.07017050  0.01009190  0.63422555    -0.79600
Co150      Co  0.95594351  0.03192531  0.68416297     1.51500
Co151      Co  0.93663952  0.05992173  0.63405508     1.51700
Co152      Co  0.05526499  0.05831859  0.65556199     1.51600
Co153      Co  0.92771092  0.93450933  0.65466761     1.51500
O154        O  0.96922815  0.02050589  0.65705600    -1.41500
C155        C  0.98239814  0.90177294  0.68586244     1.10100
C156        C  0.05574866  0.03476386  0.61994475     1.10200
C157        C  0.08489930  0.00121236  0.68570837     1.10100
C158        C  0.95584408  0.93671258  0.61953673     1.10100
O159        O  0.08067465  0.96620137  0.32426040    -0.79500
O160        O  0.00898790  0.86704720  0.35940622    -0.79600
O161        O  0.09289936  0.05321837  0.36237770    -0.79600
O162        O  0.90277120  0.87595379  0.32784924    -0.79500
O163        O  0.09453224  0.95556662  0.35994967    -0.79600
O164        O  0.99742215  0.87984845  0.32408798    -0.79600
O165        O  0.91377658  0.86725542  0.36182721    -0.79500
O166        O  0.08407156  0.06351667  0.32765820    -0.79600
C167        C  0.10925957  0.01497378  0.32318391     1.10100
C168        C  0.96185981  0.83965665  0.36317548     1.10000
C169        C  0.11960649  0.00398185  0.36464301     1.10200
C170        C  0.94980059  0.85040333  0.32324459     1.10000
O171        O  0.91246046  0.96453703  0.30930500    -0.79600
O172        O  0.02085753  0.02521100  0.38369144    -0.79600
O173        O  0.95835055  0.09933718  0.33180211    -0.79600
O174        O  0.87880697  0.99266186  0.36748065    -0.79500
O175        O  0.93992420  0.94047231  0.38339453    -0.79600
O176        O  0.99593054  0.05312337  0.30957766    -0.79600
O177        O  0.86505252  0.00280091  0.33115483    -0.79500
O178        O  0.97120711  0.08850830  0.36765600    -0.79600
Co179      Co  0.99653159  0.96634319  0.31901906     1.51500
Co180      Co  0.01485769  0.94826020  0.36929538     1.51700
Co181      Co  0.02125493  0.06991838  0.34716832     1.51600
Co182      Co  0.89620307  0.94074347  0.34700799     1.51500
O183        O  0.98120776  0.98236369  0.34569271    -1.41500
C184        C  0.86598124  0.98758907  0.31528061     1.10100
C185        C  0.99107457  0.07287882  0.38245244     1.10200
C186        C  0.97013032  0.09875423  0.31579537     1.10100
C187        C  0.89374369  0.97137218  0.38219621     1.10100
N188        N  0.96669486  0.59498653  0.49736886    -0.36000
N189        N  0.96531052  0.51898975  0.52840336    -0.56600
N190        N  0.96785321  0.40967779  0.50630931    -0.36000
N191        N  0.96830889  0.48549591  0.47535257    -0.56600
C192        C  0.97285812  0.63865052  0.50971769     0.27600
C193        C  0.97447061  0.62123539  0.48152745     0.27600
C194        C  0.95825559  0.38393682  0.52212942     0.27600
C195        C  0.95893921  0.36631383  0.49396560     0.27600
C196        C  0.96487139  0.57328879  0.53646962     0.36200
C197        C  0.96299213  0.47669639  0.54113337     0.36200
C198        C  0.97558240  0.52775281  0.46274088     0.36200
C199        C  0.97251603  0.43112566  0.46744846     0.36200
C200        C  0.98289078  0.69374369  0.50153755    -0.21300
C201        C  0.98347552  0.68288647  0.48381085    -0.21300
C202        C  0.94482044  0.32307755  0.51984946    -0.21300
C203        C  0.94481239  0.31212050  0.50212960    -0.21300
C204        C  0.96068957  0.56518789  0.55439922    -0.22400
C205        C  0.96001264  0.50435037  0.55735195    -0.22400
C206        C  0.98522328  0.49987972  0.44681676    -0.22400
C207        C  0.98367995  0.43911686  0.44981409    -0.22400
C208        C  0.97090078  0.63032411  0.52815289    -0.17700
C209        C  0.97516548  0.59125796  0.46509153    -0.17700
C210        C  0.96346468  0.37409572  0.47555916    -0.17700
C211        C  0.96156988  0.41335817  0.53860272    -0.17700
H212        H  0.98985851  0.73727282  0.50768423     0.15200
H213        H  0.99101162  0.71661775  0.47379480     0.15200
H214        H  0.93513267  0.28997358  0.52988789     0.15200
H215        H  0.93524184  0.26906205  0.49598229     0.15200
H216        H  0.95848118  0.59942538  0.56441592     0.13500
H217        H  0.95686172  0.48304816  0.57005767     0.13500
H218        H  0.99367708  0.52094133  0.43429261     0.13500
H219        H  0.99043549  0.40481021  0.44004014     0.13500
H220        H  0.95508867  0.55032605  0.49946797     0.26700
H221        H  0.98402303  0.45299399  0.50428545     0.26700
N222        N  0.38491671  0.02490286  0.49773853    -0.36000
N223        N  0.46381295  0.02172119  0.52790762    -0.56600
N224        N  0.56632343  0.01646387  0.50475375    -0.36000
N225        N  0.48743497  0.01150270  0.47466662    -0.56600
C226        C  0.34506882  0.01576338  0.51061173     0.27600
C227        C  0.35749013  0.01380604  0.48229386     0.27600
C228        C  0.59285500  0.00916609  0.52048598     0.27600
C229        C  0.60576778  0.00411780  0.49212578     0.27600
C230        C  0.41246937  0.03013401  0.53628942     0.36200
C231        C  0.50716518  0.02942893  0.53995857     0.36200
C232        C  0.44460308  0.01620589  0.46237799     0.36200
C233        C  0.53914723  0.01123443  0.46598248     0.36200
C234        C  0.29120918  0.00010162  0.50314982    -0.21300
C235        C  0.29892377  0.99939244  0.48531772    -0.21300
C236        C  0.65055556  0.99291061  0.51782828    -0.21300
C237        C  0.65877898  0.99013096  0.50002006    -0.21300
C238        C  0.42341480  0.04381162  0.55369629    -0.22400
C239        C  0.48312976  0.04312569  0.55603153    -0.22400
C240        C  0.46909475  0.01740223  0.44586996    -0.22400
C241        C  0.52843192  0.01331431  0.44811548    -0.22400
C242        C  0.35562930  0.02132975  0.52888247    -0.17700
C243        C  0.38334147  0.01625602  0.46549423    -0.17700
C244        C  0.59601778  0.00752415  0.47372379    -0.17700
C245        C  0.56761923  0.01903381  0.53717945    -0.17700
H246        H  0.25056891  0.98962206  0.50983398     0.15200
H247        H  0.26546143  0.98805199  0.47568701     0.15200
H248        H  0.68370645  0.98456938  0.52769094     0.15200
H249        H  0.69943329  0.97909873  0.49370711     0.15200
H250        H  0.39163629  0.05263622  0.56376083     0.13500
H251        H  0.50609396  0.05079701  0.56828274     0.13500
H252        H  0.44655615  0.01968848  0.43339521     0.13500
H253        H  0.55971227  0.01105594  0.43760722     0.13500
H254        H  0.42767623  0.04235986  0.49922697     0.26700
H255        H  0.52469304  0.03471775  0.50276826     0.26700
C256        C  0.01389180  0.48508621  0.25236980    -0.01900
C257        C  0.93496227  0.69562044  0.29981311     0.16500
C258        C  0.91739225  0.64621082  0.28923951    -0.32500
C259        C  0.96160104  0.61074198  0.28184909     0.20900
C260        C  0.02027009  0.62295693  0.28529593     0.03100
C261        C  0.03776730  0.67133414  0.29607589    -0.22200
C262        C  0.99394067  0.70767634  0.30300487     0.12300
S263        S  0.88926529  0.74857153  0.30848707    -0.05900
C264        C  0.95057848  0.78824640  0.31591857    -0.09400
C265        C  0.00301054  0.75995150  0.31231329    -0.26000
S266        S  0.06713699  0.57623865  0.27486370    -0.03200
C267        C  0.00775475  0.53934797  0.26505927    -0.16600
C268        C  0.95407829  0.56290960  0.27042533    -0.14600
H269        H  0.87145913  0.63716737  0.28637347     0.20800
H270        H  0.08381347  0.68155628  0.29845143     0.16800
H271        H  0.04611851  0.77844067  0.31553815     0.19300
H272        H  0.91142167  0.54604322  0.26615903     0.12700
C273        C  0.95253733  0.25902495  0.29651655     0.16500
C274        C  0.94501358  0.32167222  0.29430716    -0.32500
C275        C  0.97778610  0.35139929  0.28115127     0.20900
C276        C  0.01517159  0.31976534  0.27055889     0.03100
C277        C  0.02138337  0.25725766  0.27244822    -0.22200
C278        C  0.98962867  0.22771952  0.28569619     0.12300
S279        S  0.92327759  0.21556929  0.31300521    -0.05900
C280        C  0.96210080  0.15479994  0.30534448    -0.09400
C281        C  0.99432548  0.16801570  0.29044375    -0.26000
S282        S  0.05060125  0.36286389  0.25529166    -0.03200
C283        C  0.01532505  0.42582845  0.26300989    -0.16600
C284        C  0.97740808  0.41200781  0.27688530    -0.14600
H285        H  0.91628630  0.34638048  0.30278004     0.20800
H286        H  0.05095058  0.23282312  0.26416956     0.16800
H287        H  0.02349900  0.13684638  0.28421429     0.19300
H288        H  0.94887590  0.44398185  0.28300103     0.12700
C289        C  0.93276387  0.25783277  0.43879557     0.19700
C290        C  0.91542998  0.23089361  0.42286585    -0.32500
C291        C  0.94982317  0.18427892  0.41627082     0.20900
C292        C  0.99812808  0.16408220  0.42552112     0.03100
C293        C  0.01555967  0.19111143  0.44142661    -0.22200
C294        C  0.98235410  0.23912103  0.44770628     0.12300
S295        S  0.89968079  0.31819784  0.44810473    -0.05900
C296        C  0.95493001  0.32073589  0.46371061    -0.09400
C297        C  0.99528053  0.27494341  0.46204387    -0.26000
S298        S  0.03412261  0.10713831  0.41542069    -0.03200
C299        C  0.98492945  0.11143380  0.39820094    -0.16600
C300        C  0.94231496  0.15470039  0.40047854    -0.14600
H301        H  0.87776815  0.24689084  0.41565588     0.20800
H302        H  0.05438440  0.17648806  0.44833693     0.16800
H303        H  0.03387646  0.27039879  0.47023684     0.19300
H304        H  0.90792368  0.16414174  0.39109116     0.12700
C305        C  0.94064392  0.70680046  0.39393333     0.16500
C306        C  0.91588930  0.67078431  0.40715887    -0.32500
C307        C  0.95112764  0.65825788  0.42179113     0.20900
C308        C  0.00921560  0.67794366  0.42281782     0.03100
C309        C  0.03487040  0.71080102  0.40914189    -0.22200
C310        C  0.99900481  0.72565408  0.39489087     0.12300
S311        S  0.90144789  0.74058507  0.37763922    -0.05900
C312        C  0.96399333  0.78174617  0.37249391    -0.09400
C313        C  0.01310574  0.76680572  0.38221544    -0.26000
S314        S  0.04361106  0.66148956  0.44209810    -0.03200
C315        C  0.97888488  0.62813809  0.44893962    -0.16600
C316        C  0.93355713  0.62931554  0.43674478    -0.14600
H317        H  0.86996884  0.65723099  0.40672506     0.20800
H318        H  0.07968782  0.72776988  0.41013874     0.16800
H319        H  0.05490163  0.79095436  0.38168362     0.19300
H320        H  0.89041831  0.60906955  0.43867459     0.12700
C321        C  0.23905986  0.97347454  0.39902808     0.16500
C322        C  0.27336162  0.94732034  0.41227219    -0.32500
C323        C  0.29661218  0.98553658  0.42537756     0.20900
C324        C  0.28684532  0.04708279  0.42512979     0.03100
C325        C  0.25355190  0.07321900  0.41175167    -0.22200
C326        C  0.22966546  0.03504138  0.39881579     0.12300
S327        S  0.20129349  0.93450401  0.38308004    -0.05900
C328        C  0.17188923  0.00183430  0.37620670    -0.09400
C329        C  0.19193397  0.05160137  0.38567372    -0.26000
S330        S  0.31749880  0.08583051  0.44230985    -0.03200
C331        C  0.34375926  0.01856893  0.44999623    -0.16600
C332        C  0.32959223  0.96885528  0.43965164    -0.14600
H333        H  0.28011877  0.89913153  0.41264133     0.20800
H334        H  0.24524734  0.12113491  0.41169509     0.16800
H335        H  0.17616222  0.09697444  0.38392808     0.19300
H336        H  0.34324991  0.92329043  0.44237135     0.12700
C337        C  0.79762567  0.95811436  0.42346258     0.16500
C338        C  0.76569714  0.93727841  0.43805993    -0.32500
C339        C  0.72292889  0.97516228  0.44500407     0.20900
C340        C  0.71410057  0.03205837  0.43804961     0.03100
C341        C  0.74526935  0.05240740  0.42329834    -0.22200
C342        C  0.78649540  0.01377129  0.41598472     0.12300
S343        S  0.85026506  0.91856184  0.41288411    -0.05900
C344        C  0.85540036  0.97614788  0.39769283    -0.09400
C345        C  0.81895633  0.02411385  0.40106611    -0.26000
S346        S  0.66110049  0.07170502  0.44835338    -0.03200
C347        C  0.64769818  0.00989132  0.46164847    -0.16600
C348        C  0.68456942  0.96186588  0.45845566    -0.14600
H349        H  0.77312837  0.89301640  0.44354982     0.20800
H350        H  0.73688278  0.09610081  0.41756286     0.16800
H351        H  0.81617555  0.06418087  0.39301170     0.19300
H352        H  0.68205973  0.91889900  0.46519029     0.12700
C353        C  0.14738457  0.04968840  0.57781033     0.16500
C354        C  0.17570533  0.07056233  0.56260236    -0.32500
C355        C  0.22369061  0.03800298  0.55649716     0.20900
C356        C  0.24158563  0.98606302  0.56494103     0.03100
C357        C  0.21272244  0.96473616  0.57998805    -0.22200
C358        C  0.16583691  0.99821687  0.58638061     0.12300
S359        S  0.09121474  0.08517411  0.58798621    -0.05900
C360        C  0.09322174  0.03096079  0.60421812    -0.09400
C361        C  0.13504815  0.98728520  0.60156270    -0.26000
S362        S  0.30270540  0.95492999  0.55619443    -0.03200
C363        C  0.30535870  0.01319819  0.54119944    -0.16600
C364        C  0.25987916  0.05359414  0.54276208    -0.14600
H365        H  0.16215953  0.11155381  0.55615559     0.20800
H366        H  0.22756430  0.92491867  0.58678309     0.16800
H367        H  0.14322088  0.95019856  0.61041890     0.19300
H368        H  0.25508382  0.09352833  0.53475333     0.12700
C369        C  0.65961496  0.97959717  0.57798921     0.16500
C370        C  0.68911261  0.95064102  0.59170425    -0.32500
C371        C  0.72087378  0.98675811  0.60366626     0.20900
C372        C  0.72269384  0.04909166  0.60214309     0.03100
C373        C  0.69367153  0.07811303  0.58830953    -0.22200
C374        C  0.66235667  0.04188670  0.57622856     0.12300
S375        S  0.61855671  0.94354950  0.56224017    -0.05900
C376        C  0.60578241  0.01285779  0.55293456    -0.09400
C377        C  0.63164902  0.06131275  0.56178402    -0.26000
S378        S  0.76522490  0.08456523  0.61766045    -0.03200
C379        C  0.78194686  0.01461873  0.62610847    -0.16600
C380        C  0.75481689  0.96671475  0.61734080    -0.14600
H381        H  0.68779679  0.90194995  0.59290431     0.20800
H382        H  0.69596239  0.12672700  0.58691633     0.16800
H383        H  0.62770849  0.10807050  0.55792042     0.19300
H384        H  0.76210655  0.91959097  0.62020284     0.12700
C385        C  0.01605072  0.28849434  0.60716709     0.16500
C386        C  0.03840344  0.32079228  0.59283017    -0.32500
C387        C  0.99840895  0.33840042  0.57985316     0.20900
C388        C  0.93874052  0.32588754  0.58128980     0.03100
C389        C  0.91628341  0.29554350  0.59589493    -0.22200
C390        C  0.95628877  0.27681236  0.60866852     0.12300
S391        S  0.05786716  0.25303586  0.62251121    -0.05900
C392        C  0.99412569  0.22102434  0.63070907    -0.09400
C393        C  0.94337910  0.23975319  0.62245006    -0.26000
S394        S  0.89753905  0.34917010  0.56392381    -0.03200
C395        C  0.96142220  0.37576560  0.55458405    -0.16600
C396        C  0.01166152  0.36740460  0.56453307    -0.14600
H397        H  0.08512023  0.32908998  0.59140481     0.20800
H398        H  0.86988440  0.28460630  0.59688447     0.16800
H399        H  0.89985975  0.22127732  0.62497404     0.19300
H400        H  0.05525199  0.38282790  0.56084616     0.12700
C401        C  0.93680226  0.83850993  0.57846282     0.16500
C402        C  0.91481390  0.80698128  0.56383264    -0.32500
C403        C  0.94998431  0.76245993  0.55654213     0.20900
C404        C  0.00508274  0.75053859  0.56336991     0.03100
C405        C  0.02702208  0.78195806  0.57805027    -0.22200
C406        C  0.99136148  0.82574275  0.58553874     0.12300
S407        S  0.90003946  0.89286783  0.58943141    -0.05900
C408        C  0.95808161  0.89766576  0.60397397    -0.09400
C409        C  0.00364802  0.85923605  0.60031352    -0.26000
S410        S  0.03989250  0.69313266  0.55312058    -0.03200
C411        C  0.97891314  0.68390573  0.53977174    -0.16600
C412        C  0.93477656  0.72446734  0.54296615    -0.14600
H413        H  0.87163594  0.81597086  0.55856995     0.20800
H414        H  0.06948195  0.77175777  0.58362437     0.16800
H415        H  0.04332952  0.85577856  0.60809123     0.19300
H416        H  0.89271091  0.72410734  0.53629221     0.12700
C417        C  0.14914415  0.49864635  0.21959907     0.16500
C418        C  0.18603947  0.50259074  0.20493123    -0.32500
C419        C  0.24723881  0.50066378  0.20762437     0.20900
C420        C  0.27098792  0.49514802  0.22423592     0.03100
C421        C  0.23390007  0.49172399  0.23899351    -0.22200
C422        C  0.17238736  0.49341423  0.23624705     0.12300
S423        S  0.07384030  0.49800856  0.21890945    -0.05900
C424        C  0.07184782  0.49166961  0.24152845    -0.09400
C425        C  0.12873961  0.48890728  0.24874416    -0.26000
S426        S  0.34650978  0.48982621  0.22435973    -0.03200
C427        C  0.34609629  0.49459876  0.20173240    -0.16600
C428        C  0.28971106  0.50107706  0.19483240    -0.14600
H429        H  0.16769617  0.50597719  0.19188201     0.20800
H430        H  0.25212159  0.48686912  0.25201383     0.16800
H431        H  0.13781834  0.48227248  0.26250679     0.19300
H432        H  0.27984867  0.50340100  0.18098524     0.12700
C433        C  0.80197744  0.53096901  0.20324808     0.16500
C434        C  0.85577565  0.55313771  0.21007876    -0.32500
C435        C  0.88825921  0.51488494  0.22101636     0.20900
C436        C  0.86824695  0.45692076  0.22472285     0.03100
C437        C  0.81474831  0.43454908  0.21784504    -0.22200
C438        C  0.78200731  0.47302560  0.20712347     0.12300
S439        S  0.75484393  0.57105418  0.19034510    -0.05900
C440        C  0.70749148  0.50928072  0.19023297    -0.09400
C441        C  0.72800485  0.46030474  0.19970425    -0.26000
S442        S  0.91266611  0.41832063  0.23859124    -0.03200
C443        C  0.95937410  0.48129552  0.24002225    -0.16600
C444        C  0.94029061  0.52901795  0.22960895    -0.14600
H445        H  0.87110868  0.59865552  0.20725250     0.20800
H446        H  0.79883741  0.38945480  0.22097897     0.16800
H447        H  0.70415554  0.41790034  0.20134522     0.19300
H448        H  0.96258084  0.57255287  0.22881411     0.12700
C449        C  0.54785164  0.27245208  0.09256480     0.16500
C450        C  0.57421440  0.23916810  0.07920933    -0.32500
C451        C  0.53859376  0.21989380  0.06507551     0.20900
C452        C  0.47990499  0.23479148  0.06401032     0.03100
C453        C  0.45396689  0.26889763  0.07717866    -0.22200
C454        C  0.48888161  0.28607509  0.09160281     0.12300
S455        S  0.58250344  0.29903236  0.11108776    -0.05900
C456        C  0.51618316  0.32675389  0.11790760    -0.09400
C457        C  0.47050226  0.31665989  0.10607881    -0.26000
S458        S  0.44265606  0.20267131  0.04676641    -0.03200
C459        C  0.50624726  0.16721876  0.04111878    -0.16600
C460        C  0.55413315  0.18165330  0.05182937    -0.14600
H461        H  0.61993190  0.22713188  0.08007865     0.20800
H462        H  0.40783678  0.27947623  0.07656200     0.16800
H463        H  0.42645815  0.33313456  0.10764717     0.19300
H464        H  0.59676636  0.16141542  0.05075158     0.12700
C465        C  0.49948859  0.78794949  0.07313333     0.16500
C466        C  0.47980239  0.74937923  0.08643813    -0.32500
C467        C  0.52204785  0.72440500  0.09750543     0.20900
C468        C  0.58142023  0.73757074  0.09558370     0.03100
C469        C  0.60134203  0.77520830  0.08199921    -0.22200
C470        C  0.55895377  0.79988252  0.07081998     0.12300
S471        S  0.45466748  0.82401405  0.05874128    -0.05900
C472        C  0.51668445  0.85432145  0.04923040    -0.09400
C473        C  0.56913461  0.83786906  0.05696792    -0.26000
S474        S  0.62527127  0.70327519  0.11069192    -0.03200
C475        C  0.56288459  0.67019089  0.11939927    -0.16600
C476        C  0.51127487  0.68511729  0.11096459    -0.14600
H477        H  0.43346947  0.73940301  0.08813464     0.20800
H478        H  0.64769032  0.78497126  0.08025977     0.16800
H479        H  0.61212578  0.85352255  0.05278383     0.19300
H480        H  0.46819630  0.66727288  0.11433266     0.12700
C481        C  0.47529704  0.19698357  0.92575157     0.16500
C482        C  0.44908826  0.23233630  0.91275655    -0.32500
C483        C  0.48454434  0.25268510  0.89893455     0.20900
C484        C  0.54346501  0.23869911  0.89815629     0.03100
C485        C  0.56981708  0.20409576  0.91125761    -0.22200
C486        C  0.53444241  0.18378245  0.92505483     0.12300
S487        S  0.43939498  0.16572955  0.94317774    -0.05900
C488        C  0.50485026  0.13494230  0.94962243    -0.09400
C489        C  0.55189460  0.14895662  0.93887447    -0.26000
S490        S  0.57959712  0.26940472  0.88074145    -0.03200
C491        C  0.51483384  0.30192385  0.87438123    -0.16600
C492        C  0.46776211  0.28887015  0.88528862    -0.14600
H493        H  0.40308663  0.24332581  0.91336226     0.20800
H494        H  0.61595367  0.19360470  0.91074146     0.16800
H495        H  0.59598670  0.13281529  0.94080442     0.19300
H496        H  0.42453356  0.30774244  0.88390177     0.12700
C497        C  0.54387655  0.73715127  0.94181026     0.16500
C498        C  0.56663182  0.68624145  0.93367469    -0.32500
C499        C  0.54249019  0.66909828  0.91748140     0.20900
C500        C  0.49777378  0.70130436  0.90969427     0.03100
C501        C  0.47423549  0.75153053  0.91798424    -0.22200
C502        C  0.49829243  0.76854096  0.93420671     0.12300
S503        S  0.56975403  0.76746327  0.96092904    -0.05900
C504        C  0.51831892  0.82290919  0.95875717    -0.09400
C505        C  0.48280767  0.81724000  0.94400521    -0.26000
S506        S  0.47770253  0.67615392  0.88941800    -0.03200
C507        C  0.52986967  0.62143179  0.89150243    -0.16600
C508        C  0.56053659  0.62259340  0.90719594    -0.14600
H509        H  0.60249131  0.66187204  0.93952132     0.20800
H510        H  0.43962519  0.77703156  0.91187981     0.16800
H511        H  0.44884932  0.84841307  0.94037281     0.19300
H512        H  0.59589426  0.59273563  0.91056218     0.12700
C513        C  0.05314034  0.39108289  0.71468812     0.16500
C514        C  0.07219456  0.34977096  0.70207737    -0.32500
C515        C  0.03735471  0.29758243  0.69918177     0.20900
C516        C  0.98456274  0.28911671  0.70784421     0.03100
C517        C  0.96496959  0.33114611  0.72003849    -0.22200
C518        C  0.00121440  0.38151827  0.72359828     0.12300
S519        S  0.09136534  0.45377326  0.72135639    -0.05900
C520        C  0.03863995  0.46621492  0.73739837    -0.09400
C521        C  0.99219487  0.42421584  0.73630315    -0.26000
S522        S  0.94931224  0.22266541  0.70331494    -0.03200
C523        C  0.00679413  0.20442554  0.68993134    -0.16600
C524        C  0.05059838  0.24880230  0.68880143    -0.14600
H525        H  0.11358079  0.35667645  0.69543440     0.20800
H526        H  0.92445562  0.32336449  0.72707668     0.16800
H527        H  0.95344557  0.42414067  0.74435528     0.19300
H528        H  0.08995934  0.24527023  0.68107131     0.12700
C529        C  0.02257926  0.77924481  0.71949352     0.16500
C530        C  0.03281568  0.74411414  0.73453959    -0.32500
C531        C  0.03586798  0.68111571  0.73244864     0.20900
C532        C  0.02865540  0.65496730  0.71618028     0.03100
C533        C  0.02036100  0.68985364  0.70115858    -0.22200
C534        C  0.01752128  0.75237509  0.70319134     0.12300
S535        S  0.01166149  0.85552803  0.71916523    -0.05900
C536        C  0.00092870  0.85064344  0.69682772    -0.09400
C537        C  0.00620902  0.79303152  0.69016860    -0.26000
S538        S  0.02741212  0.57860847  0.71640296    -0.03200
C539        C  0.03980205  0.57952954  0.73885261    -0.16600
C540        C  0.04287166  0.63851880  0.74542447    -0.14600
H541        H  0.03655673  0.76473329  0.74732618     0.20800
H542        H  0.01447719  0.66892877  0.68846729     0.16800
H543        H  0.99919417  0.78098203  0.67658823     0.19300
H544        H  0.04661469  0.65000928  0.75910322     0.12700
C545        C  0.18800913  0.54454476  0.77891227     0.16500
C546        C  0.23301341  0.56484953  0.79042139    -0.32500
C547        C  0.28702387  0.53456234  0.79027990     0.20900
C548        C  0.29610202  0.48732165  0.77886235     0.03100
C549        C  0.25086525  0.46664414  0.76763274    -0.22200
C550        C  0.19658333  0.49580237  0.76814093     0.12300
S551        S  0.11927985  0.57435742  0.77677364    -0.05900
C552        C  0.10120177  0.52116389  0.76080707    -0.09400
C553        C  0.14708717  0.48060440  0.75857111    -0.26000
S554        S  0.36387993  0.45557026  0.78083096    -0.03200
C555        C  0.38009437  0.50460361  0.79776889    -0.16600
C556        C  0.33491175  0.54443413  0.80122624    -0.14600
H557        H  0.22597572  0.60202277  0.79926295     0.20800
H558        H  0.25742904  0.42873318  0.75901342     0.16800
H559        H  0.14567403  0.44068535  0.75060035     0.19300
H560        H  0.33617422  0.57738164  0.81165861     0.12700
C561        C  0.91418468  0.49505999  0.78517235     0.16500
C562        C  0.87420086  0.47192888  0.79774981    -0.32500
C563        C  0.82242165  0.50432139  0.80095843     0.20900
C564        C  0.81251174  0.55852602  0.79251800     0.03100
C565        C  0.85193727  0.58101414  0.77987563    -0.22200
C566        C  0.90222807  0.54752819  0.77619156     0.12300
S567        S  0.97877189  0.46263804  0.77880402    -0.05900
C568        C  0.98921883  0.51918180  0.76322464    -0.09400
C569        C  0.94362751  0.56080638  0.76359298    -0.26000
S570        S  0.74779190  0.59140825  0.79805005    -0.03200
C571        C  0.73130766  0.53015933  0.81123847    -0.16600
C572        C  0.77562947  0.48745180  0.81160531    -0.14600
H573        H  0.88241180  0.42982734  0.80443047     0.20800
H574        H  0.84305572  0.62237767  0.77288374     0.16800
H575        H  0.93929624  0.59875540  0.75483860     0.19300
H576        H  0.77317490  0.44571554  0.81895846     0.12700
C577        C  0.60112248  0.01711751  0.71540115     0.16500
C578        C  0.64686188  0.04483425  0.70559876    -0.32500
C579        C  0.69385203  0.00868581  0.70007979     0.20900
C580        C  0.69373048  0.94740439  0.70361939     0.03100
C581        C  0.64883930  0.92030399  0.71365286    -0.22200
C582        C  0.60341992  0.95678635  0.71971641     0.12300
S583        S  0.54085456  0.05211098  0.72391094    -0.05900
C584        C  0.51953046  0.98537715  0.73438933    -0.09400
C585        C  0.55857578  0.93890269  0.73066992    -0.26000
S586        S  0.75343472  0.91071925  0.69565156    -0.03200
C587        C  0.78148096  0.97881120  0.68809788    -0.16600
C588        C  0.74448055  0.02714525  0.69136128    -0.14600
H589        H  0.64645847  0.09264922  0.70271644     0.20800
H590        H  0.64995431  0.87280128  0.71693626     0.16800
H591        H  0.55687002  0.89384536  0.73590898     0.19300
H592        H  0.75449479  0.07347716  0.68777456     0.12700
C593        C  0.30174772  0.96896618  0.73289334     0.16500
C594        C  0.23981048  0.97055478  0.73227561    -0.32500
C595        C  0.21244454  0.97802360  0.71584715     0.20900
C596        C  0.24574596  0.98126511  0.70077645     0.03100
C597        C  0.30741377  0.97984126  0.70142725    -0.22200
C598        C  0.33477389  0.97477993  0.71784608     0.12300
S599        S  0.34329228  0.96380344  0.75147593    -0.05900
C600        C  0.40655750  0.97440541  0.73907457    -0.09400
C601        C  0.39452239  0.97745065  0.72121501    -0.26000
S602        S  0.20551044  0.98960018  0.68211070    -0.03200
C603        C  0.14248351  0.99086331  0.69450294    -0.16600
C604        C  0.15290850  0.98425333  0.71238235    -0.14600
H605        H  0.21424797  0.96769939  0.74412771     0.20800
H606        H  0.33306597  0.98417507  0.68962136     0.16800
H607        H  0.42736945  0.98362334  0.71119942     0.19300
H608        H  0.11910375  0.98418391  0.72224371     0.12700
C609        C  0.45148794  0.13677213  0.77305619     0.16500
C610        C  0.43151828  0.19066477  0.78040801    -0.32500
C611        C  0.46978145  0.22300604  0.79163709     0.20900
C612        C  0.52597624  0.20315273  0.79503214     0.03100
C613        C  0.54574074  0.14892997  0.78773484    -0.22200
C614        C  0.50693374  0.11586976  0.77678319     0.12300
S615        S  0.41180203  0.09153419  0.75917067    -0.05900
C616        C  0.46916809  0.04098675  0.75873762    -0.09400
C617        C  0.51745836  0.06153261  0.76862011    -0.26000
S618        S  0.56665708  0.25050293  0.80828440    -0.03200
C619        C  0.50690073  0.29689478  0.80970687    -0.16600
C620        C  0.45835637  0.27631876  0.80014062    -0.14600
H621        H  0.38791678  0.20659974  0.77752713     0.20800
H622        H  0.58947801  0.13317852  0.79049777     0.16800
H623        H  0.55826024  0.03768683  0.76977828     0.19300
H624        H  0.41750868  0.30012741  0.79900053     0.12700
C625        C  0.50039137  0.72677777  0.77797080     0.16500
C626        C  0.48659545  0.76233945  0.76338918    -0.32500
C627        C  0.48079437  0.82469637  0.76596731     0.20900
C628        C  0.48918981  0.85077176  0.78222671     0.03100
C629        C  0.50120480  0.81506348  0.79692686    -0.22200
C630        C  0.50629950  0.75264231  0.79438638     0.12300
S631        S  0.51117697  0.65045900  0.77757491    -0.05900
C632        C  0.52134097  0.65325731  0.79986459    -0.09400
C633        C  0.51776936  0.71060436  0.80699536    -0.26000
S634        S  0.48544303  0.92777696  0.78217182    -0.03200
C635        C  0.47397230  0.92562513  0.75974653    -0.16600
C636        C  0.46928828  0.86676656  0.75332881    -0.14600
H637        H  0.48146231  0.74244268  0.75054075     0.20800
H638        H  0.50719732  0.83511479  0.80972876     0.16800
H639        H  0.52380528  0.72104524  0.82072568     0.19300
H640        H  0.46068619  0.85556632  0.73976238     0.12700
C641        C  0.22873552  0.48403829  0.07132488     0.16500
C642        C  0.24987488  0.46796329  0.08777784    -0.32500
C643        C  0.30422750  0.49211455  0.09297174     0.20900
C644        C  0.33749197  0.52926598  0.08209682     0.03100
C645        C  0.31579289  0.54634300  0.06562049    -0.22200
C646        C  0.26014136  0.52341890  0.06063124     0.12300
S647        S  0.16381993  0.45842489  0.06285493    -0.05900
C648        C  0.17716170  0.50316080  0.04484812    -0.09400
C649        C  0.23023134  0.53535432  0.04543709    -0.26000
S650        S  0.40466279  0.54957300  0.09063561    -0.03200
C651        C  0.38559161  0.50965193  0.10918006    -0.16600
C652        C  0.33120147  0.48151882  0.10857962    -0.14600
H653        H  0.22488624  0.43788877  0.09621538     0.20800
H654        H  0.34099680  0.57597998  0.05711811     0.16800
H655        H  0.24597705  0.56556734  0.03528472     0.19300
H656        H  0.31342920  0.45262870  0.11877035     0.12700
C657        C  0.76726045  0.47573616  0.09258792     0.16500
C658        C  0.81431058  0.45301893  0.08288421    -0.32500
C659        C  0.82791676  0.48072744  0.06672975     0.20900
C660        C  0.79604172  0.52885636  0.06050063     0.03100
C661        C  0.74911012  0.55146262  0.07016002    -0.22200
C662        C  0.73560787  0.52384614  0.08627373     0.12300
S663        S  0.74160022  0.44724127  0.11216293    -0.05900
C664        C  0.68799466  0.50108888  0.11189525    -0.09400
C665        C  0.69030224  0.53818176  0.09718344    -0.26000
S666        S  0.81981422  0.55680269  0.04078464    -0.03200
C667        C  0.87358082  0.50317125  0.04077258    -0.16600
C668        C  0.87241963  0.46584938  0.05548085    -0.14600
H669        H  0.83905455  0.41517891  0.08766874     0.20800
H670        H  0.72399785  0.58893899  0.06529343     0.16800
H671        H  0.65855861  0.57251693  0.09425536     0.19300
H672        H  0.90344564  0.43047795  0.05795964     0.12700
C673        C  0.27425049  0.46047205  0.93557166     0.16500
C674        C  0.32212005  0.43598788  0.92690788    -0.32500
C675        C  0.34871473  0.47075238  0.91372173     0.20900
C676        C  0.32789278  0.52695646  0.90911244     0.03100
C677        C  0.28135195  0.55243982  0.91824331    -0.22200
C678        C  0.25546432  0.51806922  0.93168034     0.12300
S679        S  0.23411637  0.42394371  0.95122839    -0.05900
C680        C  0.19384025  0.48840808  0.95346051    -0.09400
C681        C  0.20980961  0.53472175  0.94208939    -0.26000
S682        S  0.36172411  0.55858590  0.89133778    -0.03200
C683        C  0.40547790  0.49624488  0.89047295    -0.16600
C684        C  0.39421352  0.45361537  0.90336295    -0.14600
H685        H  0.33727543  0.39127913  0.93007615     0.20800
H686        H  0.26533191  0.59657841  0.91481439     0.16800
H687        H  0.18878250  0.57802042  0.94143453     0.19300
H688        H  0.41602040  0.41082367  0.90448227     0.12700
C689        C  0.83499205  0.53776043  0.92414535     0.16500
C690        C  0.80341218  0.56787705  0.91109206    -0.32500
C691        C  0.78279388  0.53396414  0.89674912     0.20900
C692        C  0.79436971  0.47304700  0.89526387     0.03100
C693        C  0.82707302  0.44319604  0.90813613    -0.22200
C694        C  0.84630643  0.47676003  0.92271416     0.12300
S695        S  0.86238942  0.57064065  0.94274736    -0.05900
C696        C  0.88890556  0.50147581  0.94879522    -0.09400
C697        C  0.87724290  0.45559036  0.93685321    -0.26000
S698        S  0.76010366  0.43845982  0.87794722    -0.03200
C699        C  0.72842577  0.50634253  0.87286901    -0.16600
C700        C  0.74574648  0.55355479  0.88378320    -0.14600
H701        H  0.79371066  0.61527419  0.91234251     0.20800
H702        H  0.83526307  0.39538968  0.90715075     0.16800
H703        H  0.89273545  0.40995256  0.93814360     0.19300
H704        H  0.72786924  0.59840695  0.88327610     0.12700
C705        C  0.61270331  0.99091578  0.28751208     0.16500
C706        C  0.65191030  0.00577936  0.30123991    -0.32500
C707        C  0.71184540  0.99367039  0.29903556     0.20900
C708        C  0.73177003  0.96699471  0.28390611     0.03100
C709        C  0.69243718  0.95167078  0.27020852    -0.22200
C710        C  0.63257439  0.96470521  0.27233116     0.12300
S711        S  0.53901311  0.00519183  0.28728547    -0.05900
C712        C  0.53394454  0.97637285  0.26626779    -0.09400
C713        C  0.58800392  0.95618875  0.26019886    -0.26000
S714        S  0.80608617  0.95549525  0.28394339    -0.03200
C715        C  0.81084380  0.98746193  0.30454077    -0.16600
C716        C  0.75676809  0.00549511  0.31085675    -0.14600
H717        H  0.63644901  0.02678316  0.31305697     0.20800
H718        H  0.70795013  0.93121296  0.25831475     0.16800
H719        H  0.59467559  0.93813882  0.24724231     0.19300
H720        H  0.75036738  0.02505374  0.32363881     0.12700
C721        C  0.26136881  0.97610979  0.30416175     0.16500
C722        C  0.31039258  0.94512815  0.29789621    -0.32500
C723        C  0.34847500  0.97543286  0.28623872     0.20900
C724        C  0.33850882  0.03437925  0.28137668     0.03100
C725        C  0.29008686  0.06595563  0.28791522    -0.22200
C726        C  0.25130394  0.03532382  0.29936179     0.12300
S727        S  0.20766149  0.94497837  0.31701324    -0.05900
C728        C  0.17032650  0.01212718  0.31612542    -0.09400
C729        C  0.19938928  0.05659571  0.30632027    -0.26000
S730        S  0.38848183  0.06211742  0.26671381    -0.03200
C731        C  0.42303900  0.99258782  0.26621062    -0.16600
C732        C  0.39695734  0.95184367  0.27801728    -0.14600
H733        H  0.31747512  0.89861195  0.30153722     0.20800
H734        H  0.28215851  0.11190739  0.28386916     0.16800
H735        H  0.18209455  0.10079374  0.30364859     0.19300
H736        H  0.41195112  0.90682477  0.28054301     0.12700
C737        C  0.44884686  0.19298483  0.20291348     0.16500
C738        C  0.42369676  0.13969817  0.21003270    -0.32500
C739        C  0.45886647  0.10451172  0.22119356     0.20900
C740        C  0.51597929  0.12214455  0.22517093     0.03100
C741        C  0.54148571  0.17419791  0.21772897    -0.22200
C742        C  0.50670209  0.20906456  0.20656391     0.12300
S743        S  0.41324973  0.24460731  0.19005625    -0.05900
C744        C  0.47727114  0.28799083  0.18954017    -0.09400
C745        C  0.52329497  0.26270396  0.19883437    -0.26000
S746        S  0.54962668  0.07744128  0.24020417    -0.03200
C747        C  0.48637305  0.03267709  0.24139286    -0.16600
C748        C  0.44231280  0.05243601  0.22996974    -0.14600
H749        H  0.37840218  0.12700364  0.20733114     0.20800
H750        H  0.58619560  0.18789548  0.22090173     0.16800
H751        H  0.56638443  0.28363926  0.20040670     0.19300
H752        H  0.39917895  0.03128519  0.22885355     0.12700
C753        C  0.48993840  0.76518736  0.20265237     0.16500
C754        C  0.48335441  0.82786706  0.20473097    -0.32500
C755        C  0.47789160  0.85070039  0.22181487     0.20900
C756        C  0.47828926  0.81261743  0.23612507     0.03100
C757        C  0.48514688  0.74992536  0.23407880    -0.22200
C758        C  0.49137384  0.72711728  0.21702177     0.12300
S759        S  0.49854143  0.72903030  0.18308864    -0.05900
C760        C  0.50522696  0.66160688  0.19426346    -0.09400
C761        C  0.50042110  0.66775454  0.21232387    -0.26000
S762        S  0.47331623  0.84943984  0.25568372    -0.03200
C763        C  0.47151781  0.91827398  0.24478294    -0.16600
C764        C  0.47417214  0.91065507  0.22658329    -0.14600
H765        H  0.48338906  0.85769600  0.19350971     0.20800
H766        H  0.48657863  0.72032782  0.24533762     0.16800
H767        H  0.50395787  0.63089320  0.22154852     0.19300
H768        H  0.47625577  0.94689614  0.21713058     0.12700
loop_ 
_geom_bond_atom_site_label_1 
_geom_bond_atom_site_label_2 
_geom_bond_distance 
_geom_bond_site_symmetry_2 
_ccdc_geom_bond_type 
C1          C712   1.553       .  S
C1          C731   1.572       .  S
C1          C747   1.558   1_565  S
C1          C763   1.562       .  S
N2            C7   1.354       .  A
N2            C6   1.359   1_556  A
N2           H34   1.043       .  S
N3           C10   1.356   1_455  A
N3           C11   1.354       .  A
N4            C9   1.355       .  A
N4            C8   1.353   1_556  A
N4           H35   1.042       .  S
N5           C12   1.353   1_455  A
N5           C13   1.356       .  A
C6           C14   1.387       .  A
C6           C22   1.425       .  A
C7           C23   1.422       .  A
C7           C15   1.387       .  A
C8           C16   1.387       .  A
C8           C25   1.417       .  A
C9           C24   1.420       .  A
C9           C17   1.388       .  A
C10          C22   1.417       .  A
C10          C18   1.385       .  A
C11          C25   1.418       .  A
C11          C19   1.387       .  A
C12          C20   1.388   1_655  A
C12          C23   1.419       .  A
C13          C21   1.386       .  A
C13          C24   1.418       .  A
C14          C15   1.381   1_554  A
C14          H26   1.082       .  S
C15          H27   1.082       .  S
C16          C17   1.370   1_554  A
C16          H28   1.081       .  S
C17          H29   1.079       .  S
C18          C19   1.369   1_655  A
C18          H30   1.082       .  S
C19          H31   1.082       .  S
C20          C21   1.367       .  A
C20          H32   1.082   1_455  S
C21          H33   1.081       .  S
C22         C667   1.504       .  S
C23         C696   1.485       .  S
C24         C680   1.490       .  S
C25         C648   1.488       .  S
C36         C584   1.572       .  S
C36         C600   1.550       .  S
C36         C616   1.558   1_565  S
C36         C635   1.546       .  S
C37         C520   1.565       .  S
C37         C539   1.558       .  S
C37         C552   1.568       .  S
C37         C568   1.569   1_455  S
N38          C43   1.359   1_556  A
N38          C42   1.356       .  A
N38          H70   1.018       .  S
N39          C46   1.352   1_565  A
N39          C47   1.353       .  A
N40          C45   1.353       .  A
N40          C44   1.356   1_554  A
N40          H71   1.035       .  S
N41          C48   1.353       .  A
N41          C49   1.351   1_545  A
C42          C50   1.388       .  A
C42          C58   1.424       .  A
C43          C59   1.425       .  A
C43          C51   1.386       .  A
C44          C52   1.387       .  A
C44          C61   1.417       .  A
C45          C60   1.416       .  A
C45          C53   1.387       .  A
C46          C58   1.421       .  A
C46          C54   1.389       .  A
C47          C61   1.416       .  A
C47          C55   1.385       .  A
C48          C56   1.388       .  A
C48          C59   1.422       .  A
C49          C57   1.385       .  A
C49          C60   1.415       .  A
C50          C51   1.378   1_556  A
C50          H62   1.082       .  S
C51          H63   1.082       .  S
C52          C53   1.374   1_556  A
C52          H64   1.082       .  S
C53          H65   1.082       .  S
C54          C55   1.368   1_545  A
C54          H66   1.080       .  S
C55          H67   1.082       .  S
C56          C57   1.370   1_545  A
C56          H68   1.082       .  S
C57          H69   1.082       .  S
C58         C488   1.484       .  S
C59         C459   1.493       .  S
C60         C472   1.478       .  S
C61         C504   1.489       .  S
O72          C80   1.270       .  A
O72         Co92   2.034       .  S
O73          C81   1.277       .  A
O73         Co93   2.064       .  S
O74          C82   1.255       .  A
O74         Co94   1.943       .  S
O75          C83   1.263       .  A
O75         Co95   1.975       .  S
O76          C82   1.273       .  A
O76         Co93   2.042       .  S
O77          C83   1.272       .  A
O77         Co92   2.039       .  S
O78          C81   1.257       .  A
O78         Co95   1.971       .  S
O79          C80   1.257       .  A
O79         Co94   1.962       .  S
C80         C507   1.469       .  S
C81         C555   1.495       .  S
C82         C632   1.471       .  S
C83         C683   1.473       .  S
O84          C97   1.255       .  A
O84         Co92   1.953       .  S
O85          C98   1.264       .  A
O85         Co93   1.999       .  S
O86          C99   1.273       .  A
O86         Co94   2.040       .  S
O87         C100   1.277       .  A
O87         Co95   2.056       .  S
O88         C100   1.261       .  A
O88         Co93   1.970       .  S
O89          C99   1.257       .  A
O89         Co92   1.958       .  S
O90          C97   1.270       .  A
O90         Co95   2.034       .  S
O91          C98   1.274       .  A
O91         Co94   2.047       .  S
Co92         O96   2.101       .  S
Co93         O96   2.114       .  S
Co94         O96   2.107       .  S
Co95         O96   2.118       .  S
C97         C491   1.472       .  S
C98         C571   1.500       .  S
C99         C699   1.476       .  S
C100        C619   1.488       .  S
O101        C109   1.280       .  A
O101       Co121   2.043       .  S
O102        C110   1.253       .  A
O102       Co122   1.981       .  S
O103        C111   1.267       .  A
O103       Co123   1.918       .  S
O104        C112   1.263       .  A
O104       Co124   1.981       .  S
O105        C111   1.289       .  A
O105       Co122   2.083       .  S
O106        C112   1.276       .  A
O106       Co121   2.051       .  S
O107        C110   1.258       .  A
O107       Co124   1.982       .  S
O108        C109   1.269       .  A
O108       Co123   1.984       .  S
C109        C760   1.495       .  S
C110        C651   1.456       .  S
C111        C475   1.467       .  S
C112        C427   1.506       .  S
O113        C126   1.263       .  A
O113       Co121   1.973       .  S
O114        C127   1.253       .  A
O114       Co122   1.894       .  S
O115        C128   1.264       .  A
O115       Co123   2.011       .  S
O116        C129   1.281       .  A
O116       Co124   2.043       .  S
O117        C129   1.263       .  A
O117       Co122   1.967       .  S
O118        C128   1.258       .  A
O118       Co121   1.982       .  S
O119        C126   1.274       .  A
O119       Co124   2.034       .  S
O120        C127   1.304       .  A
O120       Co123   2.145       .  S
Co121       O125   2.058       .  S
Co122       O125   2.019       .  S
Co123       O125   2.061       .  S
Co124       O125   2.068       .  S
C126        C744   1.491       .  S
C127        C664   1.487       .  S
C128        C440   1.484       .  S
C129        C456   1.482       .  S
O130        C138   1.252   1_655  A
O130       Co150   1.937       .  S
O131        C139   1.256       .  A
O131       Co151   1.952       .  S
O132        C140   1.268   1_455  A
O132       Co152   2.022       .  S
O133        C141   1.276       .  A
O133       Co153   2.054       .  S
O134        C140   1.258       .  A
O134       Co151   1.958       .  S
O135        C141   1.262   1_545  A
O135       Co150   1.993       .  S
O136        C139   1.273   1_565  A
O136       Co153   2.042       .  S
O137        C138   1.276       .  A
O137       Co152   2.058       .  S
C138        C523   1.477       .  S
C139        C379   1.479       .  S
C140        C392   1.468       .  S
C141        C587   1.504       .  S
O142        C155   1.268       .  A
O142       Co150   2.021   1_565  S
O143        C156   1.270       .  A
O143       Co151   2.034   1_455  S
O144        C157   1.255   1_565  A
O144       Co152   1.950   1_565  S
O145        C158   1.263       .  A
O145       Co153   1.981       .  S
O146        C158   1.271       .  A
O146       Co151   2.033   1_565  S
O147        C157   1.279       .  A
O147       Co150   2.077   1_455  S
O148        C155   1.262       .  A
O148       Co153   1.970       .  S
O149        C156   1.265       .  A
O149       Co152   1.989       .  S
Co150       O154   2.115       .  S
Co151       O154   2.101       .  S
Co152       O154   2.120   1_455  S
Co153       O154   2.117   1_565  S
C155        C536   1.476   1_655  S
C156        C360   1.485       .  S
C157        C603   1.492   1_545  S
C158        C408   1.475       .  S
O159        C167   1.253   1_565  A
O159       Co179   1.956   1_455  S
O160        C168   1.258   1_455  A
O160       Co180   1.956       .  S
O161        C169   1.272       .  A
O161       Co181   2.038       .  S
O162        C170   1.275       .  A
O162       Co182   2.063       .  S
O163        C169   1.257   1_565  A
O163       Co180   1.960       .  S
O164        C170   1.256       .  A
O164       Co179   1.956       .  S
O165        C168   1.270       .  A
O165       Co182   2.028       .  S
O166        C167   1.279       .  A
O166       Co181   2.084       .  S
C167        C728   1.499       .  S
C168        C312   1.469       .  S
C169        C328   1.480       .  S
C170        C264   1.489       .  S
O171        C184   1.274       .  A
O171       Co179   2.050       .  S
O172        C185   1.271   1_455  A
O172       Co180   2.034   1_545  S
O173        C186   1.256       .  A
O173       Co181   1.969   1_655  S
O174        C187   1.267       .  A
O174       Co182   1.993       .  S
O175        C187   1.271       .  A
O175       Co180   2.031   1_655  S
O176        C186   1.276       .  A
O176       Co179   2.054   1_545  S
O177        C184   1.262   1_545  A
O177       Co182   1.973   1_545  S
O178        C185   1.267       .  A
O178       Co181   1.995   1_655  S
Co179       O183   2.105       .  S
Co180       O183   2.103   1_455  S
Co181       O183   2.130   1_445  S
Co182       O183   2.131       .  S
C184        C715   1.496       .  S
C185        C299   1.488       .  S
C186        C280   1.490       .  S
C187        C344   1.484       .  S
N188        C193   1.355       .  A
N188        C192   1.358       .  A
N188        H220   1.032       .  S
N189        C196   1.354       .  A
N189        C197   1.351       .  A
N190        C195   1.360       .  A
N190        C194   1.355       .  A
N190        H221   1.033       .  S
N191        C198   1.352       .  A
N191        C199   1.355       .  A
C192        C200   1.387       .  A
C192        C208   1.423       .  A
C193        C209   1.424       .  A
C193        C201   1.389       .  A
C194        C202   1.388       .  A
C194        C211   1.421       .  A
C195        C210   1.423       .  A
C195        C203   1.386       .  A
C196        C208   1.419       .  A
C196        C204   1.387       .  A
C197        C211   1.417       .  A
C197        C205   1.388       .  A
C198        C206   1.388       .  A
C198        C209   1.420       .  A
C199        C207   1.385       .  A
C199        C210   1.419       .  A
C200        C201   1.378       .  A
C200        H212   1.082       .  S
C201        H213   1.082       .  S
C202        C203   1.378       .  A
C202        H214   1.082       .  S
C203        H215   1.082       .  S
C204        C205   1.367       .  A
C204        H216   1.082       .  S
C205        H217   1.082       .  S
C206        C207   1.366       .  A
C206        H218   1.082       .  S
C207        H219   1.082       .  S
C208        C411   1.492       .  S
C209        C315   1.483       .  S
C210        C296   1.500       .  S
C211        C395   1.479       .  S
N222        C227   1.353       .  A
N222        C226   1.357       .  A
N222        H254   1.046       .  S
N223        C230   1.355       .  A
N223        C231   1.355       .  A
N224        C229   1.357       .  A
N224        C228   1.354       .  A
N224        H255   1.049       .  S
N225        C232   1.356       .  A
N225        C233   1.358       .  A
C226        C234   1.388       .  A
C226        C242   1.422       .  A
C227        C243   1.419       .  A
C227        C235   1.387   1_545  A
C228        C236   1.388   1_545  A
C228        C245   1.424       .  A
C229        C244   1.426       .  A
C229        C237   1.388   1_545  A
C230        C242   1.420       .  A
C230        C238   1.386       .  A
C231        C245   1.420       .  A
C231        C239   1.387       .  A
C232        C240   1.385       .  A
C232        C243   1.418       .  A
C233        C241   1.388       .  A
C233        C244   1.425       .  A
C234        C235   1.377   1_545  A
C234        H246   1.082   1_545  S
C235        H247   1.083       .  S
C236        C237   1.379       .  A
C236        H248   1.082       .  S
C237        H249   1.081       .  S
C238        C239   1.372       .  A
C238        H250   1.082       .  S
C239        H251   1.082       .  S
C240        C241   1.367       .  A
C240        H252   1.082       .  S
C241        H253   1.081       .  S
C242        C363   1.497       .  S
C243        C331   1.486       .  S
C244        C347   1.503       .  S
C245        C376   1.489       .  S
C256        C267   1.557       .  S
C256        C283   1.545       .  S
C256        C424   1.569       .  S
C256        C443   1.556   1_455  S
C257        C262   1.385       .  A
C257        C258   1.412       .  A
C257        S263   1.723       .  A
C258        C259   1.414       .  A
C258        H269   1.083       .  S
C259        C268   1.382       .  A
C259        C260   1.382   1_655  A
C260        C261   1.403       .  A
C260        S266   1.707       .  A
C261        C262   1.404   1_455  A
C261        H270   1.083       .  S
C262        C265   1.372   1_655  A
S263        C264   1.728       .  A
C264        C265   1.391   1_655  A
C265        H271   1.083       .  S
S266        C267   1.733       .  A
C267        C268   1.405   1_455  A
C268        H272   1.082       .  S
C273        C278   1.386       .  A
C273        C274   1.413       .  A
C273        S279   1.716       .  A
C274        C275   1.412       .  A
C274        H285   1.083       .  S
C275        C284   1.382       .  A
C275        C276   1.383   1_655  A
C276        C277   1.403       .  A
C276        S282   1.705       .  A
C277        C278   1.403   1_455  A
C277        H286   1.083       .  S
C278        C281   1.378       .  A
S279        C280   1.733       .  A
C280        C281   1.388       .  A
C281        H287   1.083   1_655  S
S282        C283   1.733       .  A
C283        C284   1.403   1_455  A
C284        H288   1.082       .  S
C289        C294   1.386       .  A
C289        C290   1.408       .  A
C289        S295   1.709       .  A
C290        C291   1.407       .  A
C290        H301   1.083       .  S
C291        C300   1.384       .  A
C291        C292   1.386       .  A
C292        C293   1.408   1_655  A
C292        S298   1.709   1_655  A
C293        C294   1.407   1_455  A
C293        H302   1.083       .  S
C294        C297   1.382       .  A
S295        C296   1.729       .  A
C296        C297   1.391       .  A
C297        H303   1.083   1_655  S
S298        C299   1.727   1_455  A
C299        C300   1.392       .  A
C300        H304   1.083       .  S
C305        C310   1.387       .  A
C305        C306   1.402       .  A
C305        S311   1.709       .  A
C306        C307   1.404       .  A
C306        H317   1.083       .  S
C307        C316   1.369       .  A
C307        C308   1.387   1_655  A
C308        C309   1.398       .  A
C308        S314   1.708       .  A
C309        C310   1.401   1_455  A
C309        H318   1.083       .  S
C310        C313   1.366   1_655  A
S311        C312   1.724       .  A
C312        C313   1.385   1_655  A
C313        H319   1.084       .  S
S314        C315   1.721   1_455  A
C315        C316   1.388       .  A
C316        H320   1.083       .  S
C321        C326   1.386   1_565  A
C321        C322   1.407       .  A
C321        S327   1.712       .  A
C322        C323   1.407       .  A
C322        H333   1.083       .  S
C323        C332   1.376       .  A
C323        C324   1.387   1_565  A
C324        C325   1.402       .  A
C324        S330   1.708       .  A
C325        C326   1.403       .  A
C325        H334   1.083       .  S
C326        C329   1.373       .  A
S327        C328   1.729   1_565  A
C328        C329   1.388       .  A
C329        H335   1.083       .  S
S330        C331   1.720       .  A
C331        C332   1.389   1_545  A
C332        H336   1.083       .  S
C337        C342   1.387   1_565  A
C337        C338   1.409       .  A
C337        S343   1.711       .  A
C338        C339   1.408       .  A
C338        H349   1.083       .  S
C339        C348   1.383       .  A
C339        C340   1.386   1_565  A
C340        C341   1.407       .  A
C340        S346   1.708       .  A
C341        C342   1.405       .  A
C341        H350   1.083       .  S
C342        C345   1.381       .  A
S343        C344   1.728       .  A
C344        C345   1.389   1_565  A
C345        H351   1.083       .  S
S346        C347   1.728       .  A
C347        C348   1.394   1_545  A
C348        H352   1.083       .  S
C353        C358   1.387   1_545  A
C353        C354   1.408       .  A
C353        S359   1.710       .  A
C354        C355   1.407       .  A
C354        H365   1.083       .  S
C355        C364   1.380       .  A
C355        C356   1.387   1_545  A
C356        C357   1.406       .  A
C356        S362   1.710       .  A
C357        C358   1.406       .  A
C357        H366   1.083       .  S
C358        C361   1.380       .  A
S359        C360   1.728       .  A
C360        C361   1.390   1_545  A
C361        H367   1.083       .  S
S362        C363   1.726   1_565  A
C363        C364   1.390       .  A
C364        H368   1.083       .  S
C369        C374   1.387   1_565  A
C369        C370   1.404       .  A
C369        S375   1.709       .  A
C370        C371   1.404       .  A
C370        H381   1.083       .  S
C371        C380   1.375       .  A
C371        C372   1.386   1_565  A
C372        C373   1.406       .  A
C372        S378   1.709       .  A
C373        C374   1.406       .  A
C373        H382   1.083       .  S
C374        C377   1.377       .  A
S375        C376   1.722   1_565  A
C376        C377   1.389       .  A
C377        H383   1.083       .  S
S378        C379   1.728       .  A
C379        C380   1.388   1_545  A
C380        H384   1.083       .  S
C385        C390   1.387   1_455  A
C385        C386   1.402       .  A
C385        S391   1.708       .  A
C386        C387   1.403   1_455  A
C386        H397   1.083       .  S
C387        C396   1.369   1_655  A
C387        C388   1.387       .  A
C388        C389   1.398       .  A
C388        S394   1.707       .  A
C389        C390   1.400       .  A
C389        H398   1.083       .  S
C390        C393   1.365       .  A
S391        C392   1.725   1_455  A
C392        C393   1.385       .  A
C393        H399   1.084       .  S
S394        C395   1.719       .  A
C395        C396   1.386   1_655  A
C396        H400   1.083       .  S
C401        C406   1.387       .  A
C401        C402   1.404       .  A
C401        S407   1.708       .  A
C402        C403   1.404       .  A
C402        H413   1.083       .  S
C403        C412   1.376       .  A
C403        C404   1.387   1_655  A
C404        C405   1.406       .  A
C404        S410   1.709       .  A
C405        C406   1.405   1_455  A
C405        H414   1.083       .  S
C406        C409   1.377   1_655  A
S407        C408   1.724       .  A
C408        C409   1.388   1_655  A
C409        H415   1.083       .  S
S410        C411   1.727   1_455  A
C411        C412   1.387       .  A
C412        H416   1.083       .  S
C417        C422   1.382       .  A
C417        C418   1.409       .  A
C417        S423   1.717       .  A
C418        C419   1.410       .  A
C418        H429   1.083       .  S
C419        C428   1.382       .  A
C419        C420   1.384       .  A
C420        C421   1.417       .  A
C420        S426   1.728       .  A
C421        C422   1.417       .  A
C421        H430   1.083       .  S
C422        C425   1.387       .  A
S423        C424   1.737       .  A
C424        C425   1.408       .  A
C425        H431   1.082       .  S
S426        C427   1.734       .  A
C427        C428   1.396       .  A
C428        H432   1.083       .  S
C433        C438   1.386       .  A
C433        C434   1.408       .  A
C433        S439   1.715       .  A
C434        C435   1.408       .  A
C434        H445   1.083       .  S
C435        C444   1.382       .  A
C435        C436   1.384       .  A
C436        C437   1.405       .  A
C436        S442   1.703       .  A
C437        C438   1.405       .  A
C437        H446   1.083       .  S
C438        C441   1.375       .  A
S439        C440   1.725       .  A
C440        C441   1.392       .  A
C441        H447   1.083       .  S
S442        C443   1.740       .  A
C443        C444   1.398       .  A
C444        H448   1.083       .  S
C449        C454   1.385       .  A
C449        C450   1.408       .  A
C449        S455   1.716       .  A
C450        C451   1.409       .  A
C450        H461   1.083       .  S
C451        C460   1.376       .  A
C451        C452   1.387       .  A
C452        C453   1.403       .  A
C452        S458   1.711       .  A
C453        C454   1.404       .  A
C453        H462   1.083       .  S
C454        C457   1.373       .  A
S455        C456   1.729       .  A
C456        C457   1.389       .  A
C457        H463   1.083       .  S
S458        C459   1.722       .  A
C459        C460   1.392       .  A
C460        H464   1.083       .  S
C465        C470   1.388       .  A
C465        C466   1.399       .  A
C465        S471   1.706       .  A
C466        C467   1.400       .  A
C466        H477   1.083       .  S
C467        C476   1.368       .  A
C467        C468   1.387       .  A
C468        C469   1.404       .  A
C468        S474   1.710       .  A
C469        C470   1.405       .  A
C469        H478   1.083       .  S
C470        C473   1.371       .  A
S471        C472   1.718       .  A
C472        C473   1.386       .  A
C473        H479   1.083       .  S
S474        C475   1.724       .  A
C475        C476   1.384       .  A
C476        H480   1.083       .  S
C481        C486   1.387       .  A
C481        C482   1.403       .  A
C481        S487   1.708       .  A
C482        C483   1.404       .  A
C482        H493   1.083       .  S
C483        C492   1.373       .  A
C483        C484   1.387       .  A
C484        C485   1.401       .  A
C484        S490   1.705       .  A
C485        C486   1.401       .  A
C485        H494   1.083       .  S
C486        C489   1.370       .  A
S487        C488   1.722       .  A
C488        C489   1.386       .  A
C489        H495   1.083       .  S
S490        C491   1.723       .  A
C491        C492   1.390       .  A
C492        H496   1.083       .  S
C497        C502   1.387       .  A
C497        C498   1.401       .  A
C497        S503   1.707       .  A
C498        C499   1.402       .  A
C498        H509   1.083       .  S
C499        C508   1.370       .  A
C499        C500   1.387       .  A
C500        C501   1.401       .  A
C500        S506   1.705       .  A
C501        C502   1.402       .  A
C501        H510   1.083       .  S
C502        C505   1.370       .  A
S503        C504   1.724       .  A
C504        C505   1.388       .  A
C505        H511   1.083       .  S
S506        C507   1.723       .  A
C507        C508   1.385       .  A
C508        H512   1.083       .  S
C513        C518   1.383       .  A
C513        C514   1.409       .  A
C513        S519   1.701       .  A
C514        C515   1.406       .  A
C514        H525   1.083       .  S
C515        C524   1.383       .  A
C515        C516   1.387   1_455  A
C516        C517   1.402       .  A
C516        S522   1.698       .  A
C517        C518   1.400   1_655  A
C517        H526   1.083       .  S
C518        C521   1.378   1_455  A
S519        C520   1.751       .  A
C520        C521   1.397   1_455  A
C521        H527   1.081       .  S
S522        C523   1.724   1_655  A
C523        C524   1.389       .  A
C524        H528   1.083       .  S
C529        C534   1.386       .  A
C529        C530   1.410       .  A
C529        S535   1.715       .  A
C530        C531   1.409       .  A
C530        H541   1.083       .  S
C531        C540   1.380       .  A
C531        C532   1.381       .  A
C532        C533   1.398       .  A
C532        S538   1.692       .  A
C533        C534   1.398       .  A
C533        H542   1.083       .  S
C534        C537   1.369       .  A
S535        C536   1.728       .  A
C536        C537   1.384       .  A
C537        H543   1.083   1_455  S
S538        C539   1.739       .  A
C539        C540   1.402       .  A
C540        H544   1.080       .  S
C545        C550   1.378       .  A
C545        C546   1.414       .  A
C545        S551   1.720       .  A
C546        C547   1.415       .  A
C546        H557   1.083       .  S
C547        C556   1.385       .  A
C547        C548   1.385       .  A
C548        C549   1.407       .  A
C548        S554   1.717       .  A
C549        C550   1.409       .  A
C549        H558   1.083       .  S
C550        C553   1.376       .  A
S551        C552   1.741       .  A
C552        C553   1.406       .  A
C553        H559   1.075       .  S
S554        C555   1.726       .  A
C555        C556   1.398       .  A
C556        H560   1.083       .  S
C561        C566   1.381       .  A
C561        C562   1.418       .  A
C561        S567   1.726       .  A
C562        C563   1.418       .  A
C562        H573   1.082       .  S
C563        C572   1.391       .  A
C563        C564   1.385       .  A
C564        C565   1.409       .  A
C564        S570   1.716       .  A
C565        C566   1.410       .  A
C565        H574   1.083       .  S
C566        C569   1.381       .  A
S567        C568   1.742       .  A
C568        C569   1.405       .  A
C569        H575   1.080       .  S
S570        C571   1.727       .  A
C571        C572   1.399       .  A
C572        H576   1.083       .  S
C577        C582   1.379   1_545  A
C577        C578   1.418       .  A
C577        S583   1.725       .  A
C578        C579   1.419       .  A
C578        H589   1.082       .  S
C579        C588   1.391       .  A
C579        C580   1.385   1_545  A
C580        C581   1.407       .  A
C580        S586   1.717       .  A
C581        C582   1.409       .  A
C581        H590   1.083       .  S
C582        C585   1.378       .  A
S583        C584   1.743   1_545  A
C584        C585   1.407       .  A
C585        H591   1.076       .  S
S586        C587   1.727       .  A
C587        C588   1.402   1_565  A
C588        H592   1.083       .  S
C593        C598   1.385       .  A
C593        C594   1.413       .  A
C593        S599   1.707       .  A
C594        C595   1.410       .  A
C594        H605   1.083       .  S
C595        C604   1.390       .  A
C595        C596   1.386       .  A
C596        C597   1.407       .  A
C596        S602   1.703       .  A
C597        C598   1.404       .  A
C597        H606   1.083       .  S
C598        C601   1.384       .  A
S599        C600   1.744       .  A
C600        C601   1.394       .  A
C601        H607   1.082       .  S
S602        C603   1.728       .  A
C603        C604   1.395       .  A
C604        H608   1.083       .  S
C609        C614   1.383       .  A
C609        C610   1.407       .  A
C609        S615   1.704       .  A
C610        C611   1.406       .  A
C610        H621   1.083       .  S
C611        C620   1.381       .  A
C611        C612   1.386       .  A
C612        C613   1.410       .  A
C612        S618   1.714       .  A
C613        C614   1.409       .  A
C613        H622   1.083       .  S
C614        C617   1.384       .  A
S615        C616   1.741       .  A
C616        C617   1.399       .  A
C617        H623   1.083       .  S
S618        C619   1.729       .  A
C619        C620   1.391       .  A
C620        H624   1.083       .  S
C625        C630   1.386       .  A
C625        C626   1.403       .  A
C625        S631   1.715       .  A
C626        C627   1.406       .  A
C626        H637   1.083       .  S
C627        C636   1.370       .  A
C627        C628   1.383       .  A
C628        C629   1.403       .  A
C628        S634   1.711       .  A
C629        C630   1.405       .  A
C629        H638   1.083       .  S
C630        C633   1.368       .  A
S631        C632   1.721       .  A
C632        C633   1.389       .  A
C633        H639   1.083       .  S
S634        C635   1.734       .  A
C635        C636   1.397       .  A
C636        H640   1.083       .  S
C641        C646   1.387       .  A
C641        C642   1.393       .  A
C641        S647   1.698       .  A
C642        C643   1.394       .  A
C642        H653   1.083       .  S
C643        C652   1.361       .  A
C643        C644   1.388       .  A
C644        C645   1.405       .  A
C644        S650   1.712       .  A
C645        C646   1.407       .  A
C645        H654   1.083       .  S
C646        C649   1.372       .  A
S647        C648   1.721       .  A
C648        C649   1.392       .  A
C649        H655   1.083       .  S
S650        C651   1.724       .  A
C651        C652   1.376       .  A
C652        H656   1.084       .  S
C657        C662   1.385       .  A
C657        C658   1.411       .  A
C657        S663   1.726       .  A
C658        C659   1.413       .  A
C658        H669   1.083       .  S
C659        C668   1.381       .  A
C659        C660   1.386       .  A
C660        C661   1.407       .  A
C660        S666   1.717       .  A
C661        C662   1.409       .  A
C661        H670   1.083       .  S
C662        C665   1.376       .  A
S663        C664   1.727       .  A
C664        C665   1.393       .  A
C665        H671   1.083       .  S
S666        C667   1.726       .  A
C667        C668   1.396       .  A
C668        H672   1.083       .  S
C673        C678   1.387       .  A
C673        C674   1.401       .  A
C673        S679   1.706       .  A
C674        C675   1.402       .  A
C674        H685   1.083       .  S
C675        C684   1.371       .  A
C675        C676   1.387       .  A
C676        C677   1.404       .  A
C676        S682   1.710       .  A
C677        C678   1.405       .  A
C677        H686   1.083       .  S
C678        C681   1.373       .  A
S679        C680   1.725       .  A
C680        C681   1.389       .  A
C681        H687   1.083       .  S
S682        C683   1.723       .  A
C683        C684   1.386       .  A
C684        H688   1.083       .  S
C689        C694   1.387       .  A
C689        C690   1.403       .  A
C689        S695   1.708       .  A
C690        C691   1.404       .  A
C690        H701   1.083       .  S
C691        C700   1.374       .  A
C691        C692   1.387       .  A
C692        C693   1.404       .  A
C692        S698   1.708       .  A
C693        C694   1.404       .  A
C693        H702   1.083       .  S
C694        C697   1.374       .  A
S695        C696   1.721       .  A
C696        C697   1.389       .  A
C697        H703   1.083       .  S
S698        C699   1.725       .  A
C699        C700   1.389       .  A
C700        H704   1.083       .  S
C705        C710   1.383       .  A
C705        C706   1.409   1_565  A
C705        S711   1.716   1_565  A
C706        C707   1.409   1_545  A
C706        H717   1.083       .  S
C707        C716   1.382   1_565  A
C707        C708   1.385       .  A
C708        C709   1.411       .  A
C708        S714   1.718       .  A
C709        C710   1.411       .  A
C709        H718   1.083       .  S
C710        C713   1.381       .  A
S711        C712   1.734   1_545  A
C712        C713   1.403       .  A
C713        H719   1.083       .  S
S714        C715   1.731       .  A
C715        C716   1.394   1_565  A
C716        H720   1.083       .  S
C721        C726   1.386   1_565  A
C721        C722   1.412       .  A
C721        S727   1.709       .  A
C722        C723   1.409       .  A
C722        H733   1.083       .  S
C723        C732   1.388       .  A
C723        C724   1.381   1_565  A
C724        C725   1.415       .  A
C724        S730   1.709       .  A
C725        C726   1.412       .  A
C725        H734   1.083       .  S
C726        C729   1.393       .  A
S727        C728   1.731   1_565  A
C728        C729   1.396       .  A
C729        H735   1.083       .  S
S730        C731   1.747   1_545  A
C731        C732   1.403       .  A
C732        H736   1.078       .  S
C737        C742   1.385       .  A
C737        C738   1.412       .  A
C737        S743   1.720       .  A
C738        C739   1.412       .  A
C738        H749   1.083       .  S
C739        C748   1.381       .  A
C739        C740   1.383       .  A
C740        C741   1.403       .  A
C740        S746   1.706       .  A
C741        C742   1.403       .  A
C741        H750   1.083       .  S
C742        C745   1.374       .  A
S743        C744   1.731       .  A
C744        C745   1.390       .  A
C745        H751   1.083       .  S
S746        C747   1.735       .  A
C747        C748   1.403       .  A
C748        H752   1.083       .  S
C753        C758   1.385       .  A
C753        C754   1.410       .  A
C753        S759   1.714       .  A
C754        C755   1.410       .  A
C754        H765   1.083       .  S
C755        C764   1.383       .  A
C755        C756   1.382       .  A
C756        C757   1.411       .  A
C756        S762   1.712       .  A
C757        C758   1.410       .  A
C757        H766   1.083       .  S
C758        C761   1.385       .  A
S759        C760   1.730       .  A
C760        C761   1.394       .  A
C761        H767   1.083       .  S
S762        C763   1.739       .  A
C763        C764   1.405       .  A
C764        H768   1.081       .  S
