geometry optimzed in LAMMPS
_audit_creation_date              2020-12-01 
_audit_creation_method            'lammps2cif' 
_symmetry_space_group_name_H-M    'P1' 
_symmetry_Int_Tables_number       1 
_symmetry_cell_setting            triclinic 
loop_ 
_symmetry_equiv_pos_as_xyz 
  x,y,z 
_cell_length_a                    28.37007821 
_cell_length_b                    31.329329625287162 
_cell_length_c                    29.129481677605142 
_cell_angle_alpha                 116.22463084850689 
_cell_angle_beta                  89.80849845804778 
_cell_angle_gamma                 117.70106082025131 
loop_ 
_atom_site_label 
_atom_site_type_symbol 
_atom_site_fract_x 
_atom_site_fract_y 
_atom_site_fract_z 
_atom_site_charge 
N1          N  0.90058222  0.49360611  0.39249625    -0.01500
C2          C  0.95435891  0.51080461  0.39447017     0.01000
C3          C  0.97717588  0.57300502  0.10932304    -0.21800
C4          C  0.94122201  0.55662009  0.13807277    -0.22100
C5          C  0.88866009  0.53199844  0.10816250     0.00900
H6          H  0.02135410  0.59172793  0.11998394     0.14700
H7          H  0.95230356  0.56182309  0.17649032     0.14800
N8          N  0.58283504  0.18647631  0.29196169    -0.01500
C9          C  0.55625249  0.13104884  0.27351746     0.01000
C10         C  0.54194435  0.10209920  0.21887927    -0.21800
C11         C  0.55984422  0.14118848  0.20303342    -0.22100
C12         C  0.58465010  0.19253288  0.24864903     0.00900
H13         H  0.51810574  0.05744428  0.19340977     0.14700
H14         H  0.55494912  0.13308350  0.16265052     0.14800
N15         N  0.54428875  0.49647691  0.05962790    -0.01500
C16         C  0.52395360  0.53003779  0.06706825     0.01000
C17         C  0.52940718  0.56112740  0.12050047    -0.21800
C18         C  0.55329206  0.54597961  0.14665864    -0.22100
C19         C  0.56224947  0.50648097  0.10840657     0.00900
H20         H  0.51816328  0.59233482  0.13870334     0.14700
H21         H  0.56275348  0.56191010  0.18892141     0.14800
O22         O  0.65034468  0.30338078  0.18649365    -0.79900
C23         C  0.64112041  0.47296164  0.18014599     0.99500
O24         O  0.61454204  0.42059377  0.15593881    -0.69000
O25         O  0.59516845  0.31868062  0.11834135    -0.72600
Al26       Al  0.60805950  0.37780786  0.18795260     1.49000
C27         C  0.62778991  0.31066599  0.09069806     0.94700
O28         O  0.77527413  0.41670567  0.17582921    -0.78800
O29         O  0.77963025  0.47739920  0.28390375    -0.72400
Al30       Al  0.70922742  0.36453483  0.18325250     1.90100
O31         O  0.76422114  0.48693561  0.19472431    -0.71400
O32         O  0.68975027  0.48197299  0.30298608    -0.71300
O33         O  0.68082564  0.50047729  0.22038369    -0.76900
O34         O  0.60473193  0.42998463  0.25376393    -0.75100
O35         O  0.68069753  0.40766662  0.20619222    -1.11300
O36         O  0.59351362  0.33173927  0.21788018    -0.70500
C37         C  0.61078204  0.29894619  0.20788961     1.00200
C38         C  0.78821898  0.46043471  0.17442977     0.96600
Al39       Al  0.72501443  0.48075484  0.24712524     1.55600
O40         O  0.67839461  0.33595098  0.11156553    -0.75100
C41         C  0.63906296  0.46486203  0.29857538     1.00800
C42         C  0.77709364  0.43693340  0.28628502     0.95700
O43         O  0.74252846  0.38784170  0.25194913    -0.80400
N44         N  0.11747657  0.59151966  0.24619467    -0.01500
C45         C  0.06478793  0.55305626  0.23977020     0.01000
C46         C  0.03538193  0.52531422  0.18761528    -0.21800
C47         C  0.07075850  0.54778044  0.16164945    -0.22100
C48         C  0.12049173  0.58840181  0.19866694     0.00900
H49         H  0.99234853  0.49318498  0.17036020     0.14700
H50         H  0.06142414  0.53542705  0.12020724     0.14800
N51         N  0.42639565  0.97146249  0.06238188    -0.01500
C52         C  0.44376612  0.02505035  0.07704001     0.01000
C53         C  0.42806177  0.04864161  0.12221194    -0.21800
C54         C  0.39991385  0.00826226  0.13566595    -0.22100
C55         C  0.39942602  0.96153274  0.09832845     0.01300
H56         H  0.43483184  0.09023702  0.14225807     0.14700
H57         H  0.38127683  0.01233321  0.16867447     0.14800
N58         N  0.42776188  0.60521550  0.92748843    -0.01500
C59         C  0.42968221  0.56394254  0.24991474     0.01000
C60         C  0.43564862  0.54612718  0.19879237    -0.21800
C61         C  0.42003630  0.57148296  0.17884170    -0.22100
C62         C  0.40441356  0.60354594  0.21817859     0.00900
H63         H  0.45120600  0.51894665  0.17874603     0.14700
H64         H  0.41923657  0.56633647  0.13952813     0.14800
O65         O  0.23578132  0.64088723  0.11185073    -0.79900
C66         C  0.37342109  0.83273865  0.10065672     0.99500
O67         O  0.32285913  0.79684702  0.08439269    -0.69000
O68         O  0.23452037  0.69780855  0.04809523    -0.72600
Al69       Al  0.28260911  0.75572550  0.11710262     1.49000
C70         C  0.23353463  0.65557106  0.01202211     0.94700
O71         O  0.35991872  0.65801941  0.05510673    -0.78800
O72         O  0.41389946  0.73283514  0.16564663    -0.72400
Al73       Al  0.30033263  0.65673843  0.08676874     1.90100
O74         O  0.41534938  0.74563328  0.07790806    -0.71400
O75         O  0.39094595  0.81441064  0.21328967    -0.71300
O76         O  0.40554719  0.83214779  0.12957332    -0.76900
O77         O  0.32091771  0.81829208  0.18672660    -0.75100
O78         O  0.32724978  0.72969442  0.11621662    -1.11300
O79         O  0.23570065  0.71891026  0.14964357    -0.70500
C80         C  0.21651119  0.66982356  0.13964894     1.00200
C81         C  0.39801475  0.69479729  0.04768029     0.96600
Al82       Al  0.40000498  0.77700537  0.14431070     1.55600
O83         O  0.26394979  0.63954845  0.02094413    -0.75100
C84         C  0.35956927  0.83415778  0.22296432     1.00800
C85         C  0.38316397  0.69044437  0.16950873     0.95700
O86         O  0.33234069  0.66246227  0.14834869    -0.80400
C87         C  0.40852536  0.67061955  0.19362243    -0.14500
C88         C  0.38074185  0.63410767  0.21030981    -0.29700
H89         H  0.45122736  0.68310774  0.19343357     0.14500
H90         H  0.33900000  0.62298776  0.21365513     0.15100
C91         C  0.42138567  0.67768550  0.00223241    -0.14500
C92         C  0.40947175  0.62502817  0.97435086    -0.29700
H93         H  0.44735594  0.70785345  0.99073613     0.14500
H94         H  0.37173939  0.59404864  0.32572469     0.15100
C95         C  0.41469346  0.91539090  0.31264260    -0.14500
C96         C  0.36614001  0.87626752  0.27675871    -0.29700
H97         H  0.46239709  0.93784431  0.99900560     0.14500
H98         H  0.32984842  0.87839710  0.28585606     0.15100
C99         C  0.39559657  0.87823396  0.08895724    -0.14500
C100        C  0.37182203  0.90840259  0.09819592    -0.29700
H101        H  0.43610246  0.89269868  0.08124270     0.14500
H102        H  0.33490233  0.89767602  0.11265998     0.15100
C103        C  0.19508063  0.62267668  0.95898424    -0.14500
C104        C  0.15001264  0.62518186  0.95048963    -0.29700
H105        H  0.20081840  0.59157140  0.92729622     0.14500
H106        H  0.14261870  0.65348304  0.98341851     0.15100
C107        C  0.17069545  0.62073131  0.18651541    -0.14500
C108        C  0.16942288  0.64495339  0.15899256    -0.29700
H109        H  0.20863077  0.62388278  0.19947241     0.14500
H110        H  0.13284945  0.64578336  0.14985361     0.15100
C111        C  0.51986587  0.59268029  0.03846432    -0.11400
C112        C  0.50463827  0.53855697  0.02626519     0.10700
C113        C  0.46631291  0.49190614  0.30730813    -0.11400
C114        C  0.44266871  0.50062149  0.27249165    -0.11400
C115        C  0.46424190  0.55717016  0.95280089     0.10700
C116        C  0.49979474  0.60185534  0.00222123    -0.11400
H117        H  0.54752263  0.62811096  0.07617579     0.14700
H118        H  0.45729536  0.45033678  0.29516547     0.14700
H119        H  0.41761360  0.46597995  0.23347786     0.14700
H120        H  0.51269008  0.64408209  0.01257514     0.14700
C121        C  0.58549688  0.47733203  0.11926613    -0.14500
C122        C  0.62360236  0.50292929  0.16423500    -0.29700
H123        H  0.57053059  0.43421450  0.09022136     0.14500
H124        H  0.64070465  0.54692884  0.19160104     0.15100
C125        C  0.56955239  0.47983345  0.34389915    -0.14500
C126        C  0.62031480  0.48697504  0.34637553    -0.29700
H127        H  0.52335138  0.43915298  0.97446017     0.14500
H128        H  0.64994907  0.51204087  0.38448913     0.15100
C129        C  0.53905585  0.06242934  0.30292150    -0.11400
C130        C  0.53166089  0.10443906  0.30506810     0.10700
C131        C  0.49506229  0.11667008  0.33244820    -0.11400
C132        C  0.44529630  0.08131597  0.03715811    -0.11400
C133        C  0.46681710  0.05209635  0.04513690     0.10700
C134        C  0.51033080  0.04992255  0.02328176    -0.11400
H135        H  0.56724536  0.05255443  0.28177362     0.14700
H136        H  0.48809261  0.14827951  0.33357060     0.14700
H137        H  0.41159670  0.08345000  0.05348608     0.14700
H138        H  0.52902136  0.02950752  0.03052814     0.14700
C139        C  0.61063938  0.24535892  0.24840674    -0.14500
C140        C  0.58289475  0.25294470  0.21853590    -0.29700
H141        H  0.65315582  0.27678217  0.27058988     0.14500
H142        H  0.53933604  0.22318586  0.19937428     0.15100
C143        C  0.55603794  0.22490849  0.01260357    -0.14500
C144        C  0.60730315  0.26949136  0.03392652    -0.29700
H145        H  0.62471591  0.22051870  0.37291325     0.14500
H146        H  0.63721489  0.27171716  0.01034084     0.15100
C147        C  0.96627326  0.47955661  0.30329793    -0.11400
C148        C  0.98254388  0.52243618  0.35547064     0.10700
C149        C  0.02757709  0.57538368  0.37084044    -0.11400
C150        C  0.05517735  0.58584786  0.33377549    -0.11400
C151        C  0.03931402  0.54282355  0.28123467     0.10700
C152        C  0.99474847  0.48948272  0.26666025    -0.11400
H153        H  0.93203972  0.43821741  0.29117349     0.14700
H154        H  0.01468005  0.64535616  0.05032196     0.14700
H155        H  0.05979164  0.64236695  0.97785715     0.14700
H156        H  0.98156791  0.45526605  0.22669637     0.14700
C157        C  0.86351536  0.49132767  0.35650212    -0.14500
C158        C  0.81467370  0.44490118  0.32806132    -0.29700
H159        H  0.87784168  0.52558447  0.34864388     0.14500
H160        H  0.80394492  0.40885563  0.33207147     0.15100
C161        C  0.83776150  0.50793039  0.12492298    -0.14500
C162        C  0.83470999  0.48188397  0.15218710    -0.29700
H163        H  0.80314152  0.51104235  0.11470520     0.14500
H164        H  0.86760253  0.47450176  0.15751774     0.15100
N165        N  0.89696208  0.53595529  0.75123973    -0.01500
C166        C  0.95185008  0.57016777  0.76010244     0.01000
C167        C  0.97808875  0.50962063  0.43478348    -0.21800
C168        C  0.93767691  0.49231282  0.45955040    -0.22100
C169        C  0.89051619  0.48284145  0.43287442     0.00900
H170        H  0.01971438  0.51872062  0.44410295     0.14700
H171        H  0.94197377  0.48636788  0.49284342     0.14800
N172        N  0.56936544  0.17467537  0.61651404    -0.01500
C173        C  0.53914037  0.11921580  0.59760376     0.01000
C174        C  0.52335540  0.09117035  0.54292521    -0.21800
C175        C  0.54437160  0.13120550  0.52795460    -0.22100
C176        C  0.57241776  0.18215242  0.57409113     0.00900
H177        H  0.49749628  0.04675256  0.51693210     0.14700
H178        H  0.53992397  0.12394526  0.48786137     0.14800
N179        N  0.55265475  0.50362241  0.39098028    -0.01500
C180        C  0.52213849  0.52800910  0.39730230     0.01000
C181        C  0.51770096  0.54930686  0.44889472    -0.21800
C182        C  0.54600975  0.53767446  0.47515076    -0.22100
C183        C  0.56711723  0.50976574  0.43896563     0.00900
H184        H  0.49538746  0.57027436  0.46531034     0.14700
H185        H  0.54888656  0.54628741  0.51561764     0.14800
O186        O  0.66392307  0.32475581  0.55292122    -0.79900
C187        C  0.64455031  0.48032150  0.51627891     0.99500
O188        O  0.60624086  0.43611318  0.51278316    -0.69000
O189        O  0.60521230  0.34595327  0.44749056    -0.72600
Al190      Al  0.60396551  0.37776810  0.52009245     1.49000
C191        C  0.62371069  0.31424041  0.42619619     0.94700
O192        O  0.75438113  0.40916228  0.49259002    -0.78800
O193        O  0.74999510  0.47909013  0.64018567    -0.72400
Al194      Al  0.70751669  0.36908896  0.52374697     1.90100
O195        O  0.77972723  0.49332812  0.55642289    -0.71400
O196        O  0.66529681  0.49073410  0.62629936    -0.71300
O197        O  0.69344201  0.50103898  0.53959017    -0.76900
O198        O  0.59382505  0.40577347  0.58982161    -0.75100
O199        O  0.67662272  0.41061970  0.54372504    -1.11300
O200        O  0.58503471  0.31095860  0.52110440    -0.70500
C201        C  0.61199315  0.29743696  0.54035742     1.00200
C202        C  0.78688544  0.46114661  0.51581654     0.96600
Al203      Al  0.71824681  0.48443264  0.58672399     1.55600
O204        O  0.65860648  0.31521240  0.45406578    -0.75100
C205        C  0.61958511  0.45544161  0.62722419     1.00800
C206        C  0.77376098  0.45203182  0.63322825     0.95700
O207        O  0.76375196  0.41215097  0.58818008    -0.80400
N208        N  0.11965810  0.63762637  0.61242302    -0.01500
C209        C  0.06597138  0.62178642  0.61080280     0.01000
C210        C  0.04037214  0.61421664  0.56535638    -0.21800
C211        C  0.07962205  0.62577193  0.53793172    -0.22100
C212        C  0.12775103  0.63978498  0.56747080     0.00900
H213        H  0.99783513  0.60152785  0.55335733     0.14700
H214        H  0.07400579  0.62496498  0.50078787     0.14800
N215        N  0.41708970  0.95739584  0.36278067    -0.01500
C216        C  0.43904555  0.01241060  0.38004168     0.01000
C217        C  0.42273389  0.03594307  0.42488323    -0.21800
C218        C  0.38973855  0.99434714  0.43534178    -0.22100
C219        C  0.38706757  0.94696388  0.39677077     0.01300
H220        H  0.43364884  0.07887220  0.44777788     0.14700
H221        H  0.37115488  0.99857171  0.46839457     0.14800
N222        N  0.40972986  0.59841156  0.26154452    -0.01500
C223        C  0.50568124  0.64394506  0.62140743     0.01000
C224        C  0.52894986  0.64612930  0.58025499    -0.21800
C225        C  0.50555084  0.66478959  0.55820913    -0.22100
C226        C  0.46869107  0.67356685  0.58678646     0.00900
H227        H  0.56019653  0.63611926  0.56814096     0.14700
H228        H  0.51352917  0.66982650  0.52403143     0.14800
O229        O  0.25825182  0.67707292  0.48900937    -0.79900
C230        C  0.37426522  0.83603298  0.42341544     0.99500
O231        O  0.32460641  0.79995175  0.41249811    -0.69000
O232        O  0.23921103  0.70746977  0.39458257    -0.72600
Al233      Al  0.29193124  0.77221990  0.45749947     1.49000
C234        C  0.22935810  0.65844635  0.36855355     0.94700
O235        O  0.35912680  0.66773934  0.40138780    -0.78800
O236        O  0.43316973  0.76064882  0.50451845    -0.72400
Al237      Al  0.31064365  0.67766298  0.44714388     1.90100
O238        O  0.41312693  0.75078763  0.40936412    -0.71400
O239        O  0.40778325  0.83902190  0.54720100    -0.71300
O240        O  0.40958826  0.84235411  0.45529879    -0.76900
O241        O  0.33684278  0.84250917  0.52155198    -0.75100
O242        O  0.33642922  0.74724636  0.46056263    -1.11300
O243        O  0.25130061  0.74792118  0.50038525    -0.70500
C244        C  0.23838594  0.70804757  0.50822265     1.00200
C245        C  0.39275016  0.69869368  0.38487002     0.96600
Al246      Al  0.40914384  0.79383469  0.47765343     1.55600
O247        O  0.25666351  0.64325959  0.38435463    -0.75100
C248        C  0.37713919  0.85961428  0.55708874     1.00800
C249        C  0.41047033  0.72684361  0.52057538     0.95700
O250        O  0.35893807  0.69766158  0.50856509    -0.80400
C251        C  0.44667992  0.72024167  0.54963998    -0.14500
C252        C  0.43024217  0.68781179  0.57175799    -0.29700
H253        H  0.48981405  0.74087586  0.54947394     0.14500
H254        H  0.38829113  0.66900065  0.57546963     0.15100
C255        C  0.40840281  0.67437556  0.33567063    -0.14500
C256        C  0.39335285  0.62069491  0.30922510    -0.29700
H257        H  0.43333105  0.70151337  0.32069384     0.14500
H258        H  0.41547401  0.63241477  0.67227133     0.15100
C259        C  0.41320912  0.91251761  0.65432350    -0.14500
C260        C  0.38817862  0.90514318  0.61019512    -0.29700
H261        H  0.45204919  0.91627364  0.30337882     0.14500
H262        H  0.37292996  0.93216504  0.61357091     0.15100
C263        C  0.39173108  0.87402967  0.40223916    -0.14500
C264        C  0.36110933  0.89475218  0.39804183    -0.29700
H265        H  0.43422950  0.89318247  0.39983403     0.14500
H266        H  0.32128061  0.88065559  0.40721434     0.15100
C267        C  0.18428259  0.61725860  0.31951826    -0.14500
C268        C  0.16130632  0.63221531  0.29389473    -0.29700
H269        H  0.16972664  0.57347173  0.30365653     0.14500
H270        H  0.17799804  0.67594812  0.30718419     0.15100
C271        C  0.18054684  0.65878314  0.55267852    -0.14500
C272        C  0.19582883  0.69648672  0.53707393    -0.29700
H273        H  0.20361082  0.63851819  0.54976059     0.14500
H274        H  0.17287880  0.71739369  0.54224773     0.15100
C275        C  0.50759194  0.58893790  0.37328372    -0.11400
C276        C  0.49974335  0.53626266  0.35782870     0.10700
C277        C  0.53622548  0.56033124  0.66519864    -0.11400
C278        C  0.52104943  0.57678313  0.63315197    -0.11400
C279        C  0.45077977  0.55345621  0.28809093     0.10700
C280        C  0.48358653  0.59748864  0.33883966    -0.11400
H281        H  0.53269274  0.62378165  0.41222493     0.14700
H282        H  0.53305661  0.52030779  0.64654560     0.14700
H283        H  0.50817682  0.54992450  0.59063257     0.14700
H284        H  0.49198042  0.63898101  0.35148448     0.14700
C285        C  0.59282089  0.48265270  0.45041508    -0.14500
C286        C  0.63089420  0.50984953  0.49602849    -0.29700
H287        H  0.57685474  0.43879220  0.42344047     0.14500
H288        H  0.64944379  0.55446794  0.52108489     0.15100
C289        C  0.60964261  0.52552235  0.70378283    -0.14500
C290        C  0.59558172  0.47231361  0.67244361    -0.29700
H291        H  0.54185203  0.45846435  0.30545505     0.14500
H292        H  0.56357216  0.44015503  0.67859692     0.15100
C293        C  0.52197773  0.04829486  0.62395806    -0.11400
C294        C  0.51692559  0.09281734  0.63003494     0.10700
C295        C  0.48742833  0.11014442  0.66504404    -0.11400
C296        C  0.46489823  0.08619848  0.35612994    -0.11400
C297        C  0.47136664  0.04340747  0.35366616     0.10700
C298        C  0.50997785  0.03290269  0.32809426    -0.11400
H299        H  0.54467989  0.03443186  0.59706337     0.14700
H300        H  0.48229033  0.14384639  0.66957087     0.14700
H301        H  0.43556283  0.09548591  0.37546867     0.14700
H302        H  0.51843759  0.00267415  0.32803862     0.14700
C303        C  0.60302546  0.23644862  0.57625110    -0.14500
C304        C  0.58151294  0.24677610  0.54429788    -0.29700
H305        H  0.64284259  0.26808615  0.60449467     0.14500
H306        H  0.53981868  0.21633841  0.51928820     0.15100
C307        C  0.60699320  0.22877737  0.34708297    -0.14500
C308        C  0.60300970  0.27446431  0.36849901    -0.29700
H309        H  0.61982941  0.21190199  0.69501806     0.14500
H310        H  0.58081668  0.28055879  0.34397783     0.15100
C311        C  0.02112563  0.57131389  0.70800114    -0.11400
C312        C  0.97955279  0.58357037  0.72126146     0.10700
C313        C  0.96687706  0.60938418  0.69855064    -0.11400
C314        C  0.99530915  0.62237663  0.66283909    -0.11400
C315        C  0.03724329  0.61044730  0.65009836     0.10700
C316        C  0.04952947  0.58445688  0.67273763    -0.11400
H317        H  0.03130991  0.55085826  0.72458506     0.14700
H318        H  0.04046598  0.60888332  0.41119564     0.14700
H319        H  0.08746625  0.62792601  0.34618227     0.14700
H320        H  0.08031798  0.57312467  0.66230873     0.14700
C321        C  0.85324950  0.52060000  0.71117855    -0.14500
C322        C  0.81507468  0.46732416  0.67723252    -0.29700
H323        H  0.85298279  0.55308219  0.70670970     0.14500
H324        H  0.81819526  0.43451788  0.67834145     0.15100
C325        C  0.83749306  0.46354417  0.44734916    -0.14500
C326        C  0.83639826  0.48506829  0.49828325    -0.29700
H327        H  0.79962667  0.43028926  0.41691504     0.14500
H328        H  0.87357291  0.52106993  0.52851754     0.15100
N329        N  0.89149040  0.53300397  0.06213513    -0.01500
C330        C  0.94550238  0.55769129  0.06286887     0.01000
C331        C  0.98053828  0.57791071  0.80419868    -0.21800
C332        C  0.94242779  0.54661381  0.82228198    -0.22100
C333        C  0.89199094  0.52080003  0.78878733     0.00900
H334        H  0.02478229  0.60103555  0.81954629     0.14700
H335        H  0.95045520  0.54218878  0.85569302     0.14800
N336        N  0.54237070  0.17922608  0.96037517    -0.01500
C337        C  0.52735394  0.12705578  0.94885744     0.01000
C338        C  0.53125062  0.09781870  0.89853427    -0.21800
C339        C  0.54858544  0.13314064  0.87808988    -0.22100
C340        C  0.55491158  0.18287843  0.91689227     0.00900
H341        H  0.52167943  0.05521860  0.87856338     0.14700
H342        H  0.55486616  0.12300008  0.83884110     0.14800
N343        N  0.58343039  0.54098666  0.74564200    -0.01500
C344        C  0.56248894  0.57452713  0.75560676     0.01000
C345        C  0.54636333  0.58480273  0.80238163    -0.21800
C346        C  0.55715865  0.55646183  0.82147839    -0.22100
C347        C  0.57964514  0.52973640  0.78593189     0.00900
H348        H  0.52813763  0.60979855  0.82054721     0.14700
H349        H  0.55104408  0.55685403  0.85832492     0.14800
O350        O  0.65251362  0.29905686  0.84405733    -0.79900
C351        C  0.60036607  0.44560282  0.83724652     0.99500
O352        O  0.57699865  0.39414773  0.81984336    -0.69000
O353        O  0.57825855  0.30212288  0.78141349    -0.72600
Al354      Al  0.58915107  0.35805048  0.85203011     1.49000
C355        C  0.60985504  0.29899260  0.75090824     0.94700
O356        O  0.75637078  0.42003041  0.82840151    -0.78800
O357        O  0.76163064  0.47985328  0.93852805    -0.72400
Al358      Al  0.69983766  0.36352869  0.83954670     1.90100
O359        O  0.73042546  0.48032713  0.84809172    -0.71400
O360        O  0.67025435  0.47256418  0.96102408    -0.71300
O361        O  0.64378272  0.47950127  0.87438646    -0.76900
O362        O  0.58439262  0.40646088  0.91931270    -0.75100
O363        O  0.66224734  0.39777996  0.86455791    -1.11300
O364        O  0.59226298  0.31637516  0.88284271    -0.70500
C365        C  0.61556014  0.28838305  0.86818474     1.00200
C366        C  0.75946337  0.46085656  0.82675910     0.96600
Al367      Al  0.69840130  0.47170985  0.90229224     1.55600
O368        O  0.66151275  0.32876300  0.76851379    -0.75100
C369        C  0.62044285  0.44847776  0.96104797     1.00800
C370        C  0.76913485  0.44478541  0.94282293     0.95700
O371        O  0.74134950  0.39399216  0.90843676    -0.80400
N372        N  0.10803258  0.58563920  0.90089946    -0.01500
C373        C  0.05399365  0.55047893  0.89458867     0.01000
C374        C  0.02943963  0.50984968  0.84185032    -0.21800
C375        C  0.06892068  0.52136291  0.81461165    -0.22100
C376        C  0.11634350  0.56818103  0.85155957     0.00900
H377        H  0.98693082  0.47625162  0.82469185     0.14700
H378        H  0.06306194  0.49932585  0.77220045     0.14800
N379        N  0.42226262  0.95743807  0.70540229    -0.01500
C380        C  0.44267965  0.01155880  0.71954596     0.01000
C381        C  0.44068595  0.04048391  0.77096466    -0.21800
C382        C  0.42006918  0.00351824  0.78940296    -0.22100
C383        C  0.40950219  0.95290797  0.74851186     0.01300
H384        H  0.45421739  0.08417453  0.79334607     0.14700
H385        H  0.41342760  0.01265775  0.82843663     0.14800
N386        N  0.46931025  0.66136783  0.62591339    -0.01500
C387        C  0.44379851  0.56771070  0.91455967     0.01000
C388        C  0.44033383  0.54227518  0.86101556    -0.21800
C389        C  0.42244811  0.56584886  0.84051624    -0.22100
C390        C  0.41538439  0.60454731  0.88220076     0.00900
H391        H  0.44933351  0.50987353  0.83916588     0.14700
H392        H  0.41388419  0.55473162  0.79936658     0.14800
O393        O  0.24957551  0.65430293  0.79735271    -0.79900
C394        C  0.38153544  0.85666516  0.80563228     0.99500
O395        O  0.33122292  0.81903222  0.78808722    -0.69000
O396        O  0.24334107  0.71909379  0.75210328    -0.72600
Al397      Al  0.29433405  0.77418855  0.81946664     1.49000
C398        C  0.24439902  0.68270181  0.71038167     0.94700
O399        O  0.37538783  0.68406854  0.74052841    -0.78800
O400        O  0.42702645  0.75029451  0.85687305    -0.72400
Al401      Al  0.31494264  0.67647530  0.77265935     1.90100
O402        O  0.43097058  0.77426217  0.77590523    -0.71400
O403        O  0.40209689  0.82791006  0.91158958    -0.71300
O404        O  0.41468294  0.85597035  0.83369191    -0.76900
O405        O  0.33313495  0.83484096  0.88938126    -0.75100
O406        O  0.34063012  0.74930945  0.81140475    -1.11300
O407        O  0.25361294  0.73251239  0.85160502    -0.70500
C408        C  0.23396868  0.68135523  0.83404923     1.00200
C409        C  0.41532445  0.72528874  0.74032468     0.96600
Al410      Al  0.41258200  0.79775970  0.84185825     1.55600
O411        O  0.27871429  0.66819234  0.71161367    -0.75100
C412        C  0.37088814  0.84750806  0.92412214     1.00800
C413        C  0.39635631  0.70368748  0.85356949     0.95700
O414        O  0.34688095  0.67376110  0.82745589    -0.80400
C415        C  0.41992737  0.68260297  0.87755002    -0.14500
C416        C  0.38927784  0.63301718  0.87474703    -0.29700
H417        H  0.46431183  0.70561211  0.89307189     0.14500
H418        H  0.34512294  0.60866828  0.85763563     0.15100
C419        C  0.44393836  0.71657715  0.69767603    -0.14500
C420        C  0.43881191  0.66717616  0.66554422    -0.29700
H421        H  0.47116426  0.75205433  0.69313733     0.14500
H422        H  0.38641762  0.59596630  0.98805603     0.15100
C423        C  0.42498972  0.93020750  0.01226322    -0.14500
C424        C  0.37664871  0.88564615  0.97931304    -0.29700
H425        H  0.42392138  0.88268414  0.65209361     0.14500
H426        H  0.33903587  0.88164674  0.99095622     0.15100
C427        C  0.40250658  0.90472834  0.79747470    -0.14500
C428        C  0.38683103  0.90155176  0.75208747    -0.29700
H429        H  0.43451524  0.94445444  0.82990728     0.14500
H430        H  0.35896877  0.86148553  0.71753986     0.15100
C431        C  0.20418695  0.65622652  0.66009899    -0.14500
C432        C  0.16127239  0.66383355  0.65980890    -0.29700
H433        H  0.20827071  0.62835041  0.62369472     0.14500
H434        H  0.15550601  0.68843658  0.69720875     0.15100
C435        C  0.16580708  0.59779161  0.83646268    -0.14500
C436        C  0.19124258  0.65287574  0.85606332    -0.29700
H437        H  0.17626479  0.57290838  0.80318926     0.14500
H438        H  0.17811988  0.67716579  0.88688133     0.15100
C439        C  0.55314617  0.64446954  0.74290762    -0.11400
C440        C  0.55250294  0.59403537  0.72054183     0.10700
C441        C  0.46846288  0.49370450  0.97698350    -0.11400
C442        C  0.44928338  0.50303663  0.94012689    -0.11400
C443        C  0.52056844  0.62648276  0.65578634     0.10700
C444        C  0.53713118  0.66041515  0.71087433    -0.11400
H445        H  0.56561289  0.67151127  0.78539479     0.14700
H446        H  0.45327394  0.45136506  0.96754540     0.14700
H447        H  0.42141344  0.46787603  0.90239132     0.14700
H448        H  0.53835196  0.69956956  0.72910937     0.14700
C449        C  0.60182948  0.49919578  0.79543712    -0.14500
C450        C  0.57487324  0.46688599  0.81637983    -0.29700
H451        H  0.64138856  0.50536941  0.78784141     0.14500
H452        H  0.53359706  0.45758190  0.82033910     0.15100
C453        C  0.55478626  0.46500297  0.01135069    -0.14500
C454        C  0.60520855  0.47225476  0.01049911    -0.29700
H455        H  0.63791869  0.55713986  0.69483271     0.14500
H456        H  0.63806276  0.50184183  0.04670764     0.15100
C457        C  0.53065576  0.07498723  0.99240495    -0.11400
C458        C  0.50865054  0.10371002  0.98415955     0.10700
C459        C  0.46593174  0.10675683  0.00681645    -0.11400
C460        C  0.46275767  0.08300030  0.69323164    -0.11400
C461        C  0.46755118  0.03830399  0.68743446     0.10700
C462        C  0.49850726  0.02201461  0.65330763    -0.11400
H463        H  0.56371339  0.07224127  0.97515472     0.14700
H464        H  0.44739108  0.12740176  0.99971916     0.14700
H465        H  0.43939329  0.09671414  0.71925939     0.14700
H466        H  0.50513393  0.98943245  0.64958355     0.14700
C467        C  0.57061975  0.23218102  0.91118393    -0.14500
C468        C  0.59955354  0.24107205  0.87665159    -0.29700
H469        H  0.55928409  0.26188510  0.93631074     0.14500
H470        H  0.61382702  0.21314087  0.85417520     0.15100
C471        C  0.59543668  0.21681624  0.67117167    -0.14500
C472        C  0.58581642  0.25861552  0.69420659    -0.29700
H473        H  0.52768757  0.21963072  0.03747705     0.14500
H474        H  0.55657580  0.26025902  0.67207425     0.15100
C475        C  0.95588213  0.50517788  0.97429338    -0.11400
C476        C  0.96737743  0.55623643  0.01666721     0.10700
C477        C  0.00560610  0.60560458  0.01789837    -0.11400
C478        C  0.03271750  0.60393428  0.97747037    -0.11400
C479        C  0.02424185  0.55306715  0.93687082     0.10700
C480        C  0.98427824  0.50359414  0.93486442    -0.11400
H481        H  0.92686566  0.46668806  0.97311992     0.14700
H482        H  0.93615555  0.62067612  0.70918987     0.14700
H483        H  0.98506177  0.64237038  0.64570675     0.14700
H484        H  0.97596794  0.46367064  0.90348448     0.14700
C485        C  0.84754878  0.51652497  0.02190495    -0.14500
C486        C  0.81106863  0.46278865  0.98798513    -0.29700
H487        H  0.84792954  0.54846021  0.01580249     0.14500
H488        H  0.81348413  0.43120478  0.99253444     0.15100
C489        C  0.84167511  0.48048953  0.79383034    -0.14500
C490        C  0.79996942  0.48909588  0.80329460    -0.29700
H491        H  0.84412755  0.45025880  0.80099621     0.14500
H492        H  0.80002942  0.52274687  0.80082245     0.15100
loop_ 
_geom_bond_atom_site_label_1 
_geom_bond_atom_site_label_2 
_geom_bond_distance 
_geom_bond_site_symmetry_2 
_ccdc_geom_bond_type 
N1            C2   1.353       .  A
N1          C169   1.356       .  A
N1          C157   1.443       .  S
C2          C148   1.467       .  S
C2          C167   1.379       .  A
C3            C4   1.376       .  A
C3          C330   1.379       .  A
C3            H6   1.081   1_655  S
C4            C5   1.387       .  A
C4            H7   1.082       .  S
C5          N329   1.356       .  A
C5          C161   1.483       .  S
N8           C12   1.354       .  A
N8            C9   1.354       .  A
N8          C307   1.444       .  S
C9          C130   1.469       .  S
C9           C10   1.381       .  A
C10          C11   1.375       .  A
C10          H13   1.082       .  S
C11          C12   1.383       .  A
C11          H14   1.083       .  S
C12         C139   1.469       .  S
N15          C19   1.356       .  A
N15          C16   1.359       .  A
N15         C453   1.443       .  S
C16         C112   1.485       .  S
C16          C17   1.385       .  A
C17          C18   1.374       .  A
C17          H20   1.081       .  S
C18          C19   1.382       .  A
C18          H21   1.082       .  S
C19         C121   1.478       .  S
O22          C37   1.263       .  A
O22         Al30   1.911       .  S
C23         C122   1.471       .  S
C23          O33   1.264       .  A
C23          O24   1.260       .  A
O24         Al26   1.891       .  S
O25          C27   1.265       .  A
O25         Al26   1.932       .  S
Al26         O34   1.931       .  S
Al26         O36   1.889       .  S
Al26         O35   1.783       .  S
C27         C144   1.470       .  S
C27          O40   1.257       .  A
O28          C38   1.263       .  A
O28         Al30   1.921       .  S
O29          C42   1.269       .  A
O29         Al39   1.955       .  S
Al30         O43   1.874       .  S
Al30         O40   1.887       .  S
Al30         O35   1.773       .  S
O31          C38   1.261       .  A
O31         Al39   1.912       .  S
O32          C41   1.263       .  A
O32         Al39   1.903       .  S
O33         Al39   1.927       .  S
O34          C41   1.267       .  A
O35         Al39   1.779       .  S
O36          C37   1.258       .  A
C37         C140   1.460       .  S
C38         C162   1.472       .  S
C41         C126   1.479       .  S
C42         C158   1.474       .  S
C42          O43   1.254       .  A
N44          C48   1.349       .  A
N44          C45   1.360       .  A
N44         C268   1.440       .  S
C45         C151   1.485       .  S
C45          C46   1.388       .  A
C46          C47   1.372       .  A
C46          H49   1.082   1_455  S
C47          C48   1.379       .  A
C47          H50   1.082       .  S
C48         C107   1.467       .  S
N51          C55   1.356       .  A
N51          C52   1.357   1_565  A
N51         C423   1.445       .  S
C52         C133   1.479       .  S
C52          C53   1.385       .  A
C53          C54   1.374       .  A
C53          H56   1.082       .  S
C54          C55   1.379   1_545  A
C54          H57   1.082       .  S
C55         C100   1.472       .  S
N58         C390   1.355       .  A
N58         C387   1.354       .  A
N58          C92   1.437       .  S
C59         N222   1.358       .  A
C59         C279   1.488       .  S
C59          C60   1.382       .  A
C60          C61   1.379       .  A
C60          H63   1.081       .  S
C61          C62   1.383       .  A
C61          H64   1.082       .  S
C62         N222   1.359       .  A
C62          C88   1.488       .  S
O65          C80   1.259       .  A
O65         Al73   1.897       .  S
C66          C99   1.462       .  S
C66          O76   1.255       .  A
C66          O67   1.257       .  A
O67         Al69   1.892       .  S
O68          C70   1.262       .  A
O68         Al69   1.920       .  S
Al69         O77   1.912       .  S
Al69         O79   1.879       .  S
Al69         O78   1.792       .  S
C70         C103   1.483   1_554  S
C70          O83   1.258       .  A
O71          C81   1.266       .  A
O71         Al73   1.915       .  S
O72          C85   1.262       .  A
O72         Al82   1.930       .  S
Al73         O86   1.910       .  S
Al73         O83   1.902       .  S
Al73         O78   1.787       .  S
O74          C81   1.261       .  A
O74         Al82   1.900       .  S
O75          C84   1.269       .  A
O75         Al82   1.916       .  S
O76         Al82   1.896       .  S
O77          C84   1.265       .  A
O78         Al82   1.795       .  S
O79          C80   1.254       .  A
C80         C108   1.458       .  S
C81          C91   1.475       .  S
C84          C96   1.475       .  S
C85          C87   1.484       .  S
C85          O86   1.257       .  A
C87          C88   1.348       .  D
C87          H89   1.087       .  S
C88          H90   1.086       .  S
C91          C92   1.340   1_554  D
C91          H93   1.086   1_554  S
C92         H422   1.087       .  S
H94         C256   1.087       .  S
C95         N215   1.445       .  S
C95          C96   1.342       .  D
C95         H261   1.084       .  S
C96          H98   1.087       .  S
H97         C423   1.084   1_556  S
C99         C100   1.337       .  D
C99         H101   1.087       .  S
C100        H102   1.087       .  S
C103        C104   1.347       .  D
C103        H105   1.086       .  S
C104        N372   1.448       .  S
C104        H106   1.082       .  S
C107        C108   1.335       .  D
C107        H109   1.087       .  S
C108        H110   1.087       .  S
C111        C112   1.406       .  A
C111        C116   1.395       .  A
C111        H117   1.083       .  S
C112        C441   1.405   1_554  A
C113        C114   1.405       .  A
C113        C276   1.405       .  A
C113        H118   1.082       .  S
C114        C279   1.408       .  A
C114        H119   1.083       .  S
C115        C387   1.481       .  S
C115        C116   1.402   1_556  A
C115        C442   1.404       .  A
C116        H120   1.083       .  S
C121        C122   1.343       .  D
C121        H123   1.086       .  S
C122        H124   1.087       .  S
C125        N179   1.446       .  S
C125        C126   1.348       .  D
C125        H291   1.084       .  S
C126        H128   1.085       .  S
H127        C453   1.082   1_556  S
C129        C130   1.401       .  A
C129        C298   1.400       .  A
C129        H135   1.083       .  S
C130        C131   1.398       .  A
C131        C296   1.392       .  A
C131        H136   1.084       .  S
C132        C133   1.405       .  A
C132        C459   1.394       .  A
C132        H137   1.083       .  S
C133        C134   1.403       .  A
C134        C457   1.399   1_554  A
C134        H138   1.082       .  S
C139        C140   1.340       .  D
C139        H141   1.087       .  S
C140        H142   1.087       .  S
C143        N336   1.441   1_554  S
C143        C144   1.343       .  D
C143        H473   1.085       .  S
C144        H146   1.086       .  S
H145        C307   1.087       .  S
C147        C148   1.397       .  A
C147        C152   1.394       .  A
C147        H153   1.083       .  S
C148        C149   1.401   1_655  A
C149        C150   1.398       .  A
C149        H318   1.083       .  S
C150        C151   1.407       .  A
C150        H319   1.080       .  S
C151        C152   1.408   1_455  A
C152        H156   1.082       .  S
H154        C477   1.083       .  S
H155        C478   1.081       .  S
C157        C158   1.338       .  D
C157        H159   1.086       .  S
C158        H160   1.086       .  S
C161        C162   1.346       .  D
C161        H163   1.086       .  S
C162        H164   1.087       .  S
N165        C333   1.355       .  A
N165        C166   1.359       .  A
N165        C321   1.446       .  S
C166        C312   1.477       .  S
C166        C331   1.385       .  A
C167        C168   1.375       .  A
C167        H170   1.082   1_655  S
C168        C169   1.384       .  A
C168        H171   1.082       .  S
C169        C325   1.477       .  S
N172        C176   1.351       .  A
N172        C173   1.353       .  A
N172        C471   1.438       .  S
C173        C294   1.475       .  S
C173        C174   1.383       .  A
C174        C175   1.380       .  A
C174        H177   1.082       .  S
C175        C176   1.385       .  A
C175        H178   1.082       .  S
C176        C303   1.478       .  S
N179        C183   1.361       .  A
N179        C180   1.363       .  A
C180        C276   1.488       .  S
C180        C181   1.382       .  A
C181        C182   1.373       .  A
C181        H184   1.081       .  S
C182        C183   1.379       .  A
C182        H185   1.081       .  S
C183        C285   1.481       .  S
O186        C201   1.262       .  A
O186       Al194   1.903       .  S
C187        C286   1.473       .  S
C187        O197   1.259       .  A
C187        O188   1.260       .  A
O188       Al190   1.904       .  S
O189        C191   1.259       .  A
O189       Al190   1.907       .  S
Al190       O198   1.906       .  S
Al190       O200   1.918       .  S
Al190       O199   1.787       .  S
C191        C308   1.482       .  S
C191        O204   1.263       .  A
O192        C202   1.263       .  A
O192       Al194   1.901       .  S
O193        C206   1.262       .  A
O193       Al203   1.909       .  S
Al194       O207   1.916       .  S
Al194       O204   1.926       .  S
Al194       O199   1.785       .  S
O195        C202   1.262       .  A
O195       Al203   1.912       .  S
O196        C205   1.264       .  A
O196       Al203   1.920       .  S
O197       Al203   1.905       .  S
O198        C205   1.262       .  A
O199       Al203   1.795       .  S
O200        C201   1.262       .  A
C201        C304   1.471       .  S
C202        C326   1.466       .  S
C205        C290   1.480       .  S
C206        C322   1.480       .  S
C206        O207   1.260       .  A
N208        C212   1.354       .  A
N208        C209   1.358       .  A
N208        C432   1.443       .  S
C209        C315   1.478       .  S
C209        C210   1.380       .  A
C210        C211   1.373       .  A
C210        H213   1.082   1_455  S
C211        C212   1.384       .  A
C211        H214   1.082       .  S
C212        C271   1.475       .  S
N215        C219   1.354       .  A
N215        C216   1.360   1_565  A
C216        C297   1.484       .  S
C216        C217   1.388       .  A
C217        C218   1.372   1_545  A
C217        H220   1.082       .  S
C218        C219   1.376       .  A
C218        H221   1.082       .  S
C219        C264   1.467       .  S
N222        C256   1.440       .  S
C223        N386   1.356       .  A
C223        C443   1.477       .  S
C223        C224   1.379       .  A
C224        C225   1.375       .  A
C224        H227   1.080       .  S
C225        C226   1.386       .  A
C225        H228   1.082       .  S
C226        N386   1.355       .  A
C226        C252   1.486       .  S
O229        C244   1.264       .  A
O229       Al237   1.918       .  S
C230        C263   1.463       .  S
C230        O240   1.251       .  A
C230        O231   1.252       .  A
O231       Al233   1.893       .  S
O232        C234   1.259       .  A
O232       Al233   1.903       .  S
Al233       O241   1.931       .  S
Al233       O243   1.867       .  S
Al233       O242   1.787       .  S
C234        C267   1.480       .  S
C234        O247   1.256       .  A
O235        C245   1.277       .  A
O235       Al237   1.945       .  S
O236        C249   1.248       .  A
O236       Al246   1.881       .  S
Al237       O250   1.923       .  S
Al237       O247   1.896       .  S
Al237       O242   1.791       .  S
O238        C245   1.266       .  A
O238       Al246   1.886       .  S
O239        C248   1.269       .  A
O239       Al246   1.904       .  S
O240       Al246   1.895       .  S
O241        C248   1.270       .  A
O242       Al246   1.789       .  S
O243        C244   1.254       .  A
C244        C272   1.467       .  S
C245        C255   1.475       .  S
C248        C260   1.471       .  S
C249        C251   1.474       .  S
C249        O250   1.254       .  A
C251        C252   1.342       .  D
C251        H253   1.088       .  S
C252        H254   1.086       .  S
C255        C256   1.339       .  D
C255        H257   1.086       .  S
H258        C420   1.086       .  S
C259        N379   1.441       .  S
C259        C260   1.342       .  D
C259        H425   1.086       .  S
C260        H262   1.086       .  S
C263        C264   1.337       .  D
C263        H265   1.087       .  S
C264        H266   1.087       .  S
C267        C268   1.341       .  D
C267        H269   1.086       .  S
C268        H270   1.087       .  S
C271        C272   1.337       .  D
C271        H273   1.085       .  S
C272        H274   1.088       .  S
C275        C276   1.406       .  A
C275        C280   1.398       .  A
C275        H281   1.083       .  S
C277        C440   1.405       .  A
C277        C278   1.399       .  A
C277        H282   1.081       .  S
C278        C443   1.404       .  A
C278        H283   1.082       .  S
C279        C280   1.403       .  A
C280        H284   1.083       .  S
C285        C286   1.346       .  D
C285        H287   1.086       .  S
C286        H288   1.087       .  S
C289        N343   1.443       .  S
C289        C290   1.346       .  D
C289        H455   1.087       .  S
C290        H292   1.086       .  S
C293        C294   1.402       .  A
C293        C462   1.400       .  A
C293        H299   1.083       .  S
C294        C295   1.401       .  A
C295        C460   1.395       .  A
C295        H300   1.083       .  S
C296        C297   1.407       .  A
C296        H301   1.082       .  S
C297        C298   1.406       .  A
C298        H302   1.079       .  S
C303        C304   1.341       .  D
C303        H305   1.086       .  S
C304        H306   1.087       .  S
C307        C308   1.346       .  D
C308        H310   1.086       .  S
H309        C471   1.087       .  S
C311        C312   1.405   1_455  A
C311        C316   1.391       .  A
C311        H317   1.084       .  S
C312        C313   1.402       .  A
C313        C314   1.401       .  A
C313        H482   1.081       .  S
C314        C315   1.407   1_655  A
C314        H483   1.083       .  S
C315        C316   1.400       .  A
C316        H320   1.083       .  S
C321        C322   1.343       .  D
C321        H323   1.085       .  S
C322        H324   1.086       .  S
C325        C326   1.339       .  D
C325        H327   1.084       .  S
C326        H328   1.087       .  S
N329        C330   1.353       .  A
N329        C485   1.439       .  S
C330        C476   1.471       .  S
C331        C332   1.369       .  A
C331        H334   1.083   1_655  S
C332        C333   1.375       .  A
C332        H335   1.081       .  S
C333        C489   1.463       .  S
N336        C340   1.353       .  A
N336        C337   1.354       .  A
C337        C458   1.475       .  S
C337        C338   1.381       .  A
C338        C339   1.377       .  A
C338        H341   1.082       .  S
C339        C340   1.387       .  A
C339        H342   1.082       .  S
C340        C467   1.483       .  S
N343        C347   1.357       .  A
N343        C344   1.361       .  A
C344        C440   1.487       .  S
C344        C345   1.384       .  A
C345        C346   1.372       .  A
C345        H348   1.081       .  S
C346        C347   1.381       .  A
C346        H349   1.082       .  S
C347        C449   1.478       .  S
O350        C365   1.258       .  A
O350       Al358   1.900       .  S
C351        C450   1.465       .  S
C351        O361   1.262       .  A
C351        O352   1.258       .  A
O352       Al354   1.892       .  S
O353        C355   1.266       .  A
O353       Al354   1.927       .  S
Al354       O362   1.929       .  S
Al354       O364   1.914       .  S
Al354       O363   1.785       .  S
C355        C472   1.467       .  S
C355        O368   1.262       .  A
O356        C366   1.263       .  A
O356       Al358   1.917       .  S
O357        C370   1.268       .  A
O357       Al367   1.936       .  S
Al358       O371   1.898       .  S
Al358       O368   1.890       .  S
Al358       O363   1.785       .  S
O359        C366   1.251       .  A
O359       Al367   1.879       .  S
O360        C369   1.255       .  A
O360       Al367   1.880       .  S
O361       Al367   1.912       .  S
O362        C369   1.265       .  A
O363       Al367   1.781       .  S
O364        C365   1.263       .  A
C365        C468   1.470       .  S
C366        C490   1.468       .  S
C369        C454   1.471   1_556  S
C370        C486   1.482       .  S
C370        O371   1.260       .  A
N372        C376   1.358       .  A
N372        C373   1.360       .  A
C373        C479   1.485       .  S
C373        C374   1.386       .  A
C374        C375   1.373       .  A
C374        H377   1.082   1_455  S
C375        C376   1.378       .  A
C375        H378   1.082       .  S
C376        C435   1.473       .  S
N379        C383   1.355       .  A
N379        C380   1.361   1_565  A
C380        C461   1.488       .  S
C380        C381   1.384       .  A
C381        C382   1.375       .  A
C381        H384   1.082       .  S
C382        C383   1.383   1_545  A
C382        H385   1.082       .  S
C383        C428   1.483       .  S
N386        C420   1.438       .  S
C387        C388   1.381       .  A
C388        C389   1.378       .  A
C388        H391   1.081       .  S
C389        C390   1.381       .  A
C389        H392   1.082       .  S
C390        C416   1.476       .  S
O393        C408   1.266       .  A
O393       Al401   1.917       .  S
C394        C427   1.470       .  S
C394        O404   1.262       .  A
C394        O395   1.263       .  A
O395       Al397   1.915       .  S
O396        C398   1.259       .  A
O396       Al397   1.904       .  S
Al397       O405   1.903       .  S
Al397       O407   1.894       .  S
Al397       O406   1.782       .  S
C398        C431   1.481       .  S
C398        O411   1.258       .  A
O399        C409   1.264       .  A
O399       Al401   1.918       .  S
O400        C413   1.262       .  A
O400       Al410   1.927       .  S
Al401       O414   1.891       .  S
Al401       O411   1.908       .  S
Al401       O406   1.787       .  S
O402        C409   1.261       .  A
O402       Al410   1.899       .  S
O403        C412   1.265       .  A
O403       Al410   1.915       .  S
O404       Al410   1.915       .  S
O405        C412   1.259       .  A
O406       Al410   1.789       .  S
O407        C408   1.260       .  A
C408        C436   1.474       .  S
C409        C419   1.475       .  S
C412        C424   1.470       .  S
C413        C415   1.481       .  S
C413        O414   1.257       .  A
C415        C416   1.345       .  D
C415        H417   1.087       .  S
C416        H418   1.086       .  S
C419        C420   1.343       .  D
C419        H421   1.087       .  S
C423        C424   1.340   1_554  D
C424        H426   1.086       .  S
C427        C428   1.342       .  D
C427        H429   1.087       .  S
C428        H430   1.086       .  S
C431        C432   1.346       .  D
C431        H433   1.084       .  S
C432        H434   1.087       .  S
C435        C436   1.341       .  D
C435        H437   1.087       .  S
C436        H438   1.087       .  S
C439        C440   1.409       .  A
C439        C444   1.397       .  A
C439        H445   1.083       .  S
C441        C442   1.401       .  A
C441        H446   1.081       .  S
C442        H447   1.083       .  S
C443        C444   1.400       .  A
C444        H448   1.083       .  S
C449        C450   1.343       .  D
C449        H451   1.086       .  S
C450        H452   1.087       .  S
C453        C454   1.342       .  D
C454        H456   1.086       .  S
C457        C458   1.404       .  A
C457        H463   1.083       .  S
C458        C459   1.400   1_556  A
C459        H464   1.083   1_554  S
C460        C461   1.406       .  A
C460        H465   1.083       .  S
C461        C462   1.408       .  A
C462        H466   1.081   1_545  S
C467        C468   1.339       .  D
C467        H469   1.086       .  S
C468        H470   1.086       .  S
C471        C472   1.339       .  D
C472        H474   1.086       .  S
C475        C476   1.401   1_556  A
C475        C480   1.397       .  A
C475        H481   1.083       .  S
C476        C477   1.401   1_655  A
C477        C478   1.399   1_554  A
C478        C479   1.406       .  A
C479        C480   1.406   1_455  A
C480        H484   1.083       .  S
C485        C486   1.341   1_554  D
C485        H487   1.086       .  S
C486        H488   1.086       .  S
C489        C490   1.333       .  D
C489        H491   1.087       .  S
C490        H492   1.087       .  S
