geometry optimzed in LAMMPS
_audit_creation_date              2020-12-01 
_audit_creation_method            'lammps2cif' 
_symmetry_space_group_name_H-M    'P1' 
_symmetry_Int_Tables_number       1 
_symmetry_cell_setting            triclinic 
loop_ 
_symmetry_equiv_pos_as_xyz 
  x,y,z 
_cell_length_a                    28.75361788 
_cell_length_b                    26.06356249967381 
_cell_length_c                    28.93366869507717 
_cell_angle_alpha                 89.99293337081855 
_cell_angle_beta                  90.05895115927638 
_cell_angle_gamma                 90.15540375189669 
loop_ 
_atom_site_label 
_atom_site_type_symbol 
_atom_site_fract_x 
_atom_site_fract_y 
_atom_site_fract_z 
_atom_site_charge 
O1          O  0.46261334  0.55151968  0.44910397    -0.74600
O2          O  0.46511178  0.45209677  0.04931148    -0.74600
O3          O  0.46374989  0.55463592  0.04456217    -0.74600
O4          O  0.46074588  0.44884793  0.45374519    -0.74700
O5          O  0.03768848  0.45072900  0.44812979    -0.74600
O6          O  0.04093679  0.55260464  0.04620668    -0.74600
O7          O  0.04205575  0.44977767  0.04361334    -0.74600
O8          O  0.03986686  0.55341151  0.45074206    -0.74600
Ni9        Ni  0.46032448  0.50175950  0.49923870     1.25400
Ni10       Ni  0.04286845  0.50161333  0.99709050     1.25400
C11         C  0.00154302  0.56720579  0.43214484     0.87600
C12         C  0.00480607  0.43655738  0.06452643     0.87600
C13         C  0.50214956  0.56859988  0.06306058     0.87600
C14         C  0.49791125  0.43462676  0.43341927     0.87800
C15         C  0.03569276  0.25596249  0.21750209     0.45300
H16         H  0.06557631  0.26031517  0.19391379    -0.03700
C17         C  0.46858559  0.25380392  0.27629442     0.45400
H18         H  0.43956226  0.25355475  0.30136293    -0.03700
C19         C  0.49322563  0.22764569  0.19831115    -0.17400
C20         C  0.04723008  0.22505670  0.26217603    -0.17100
C21         C  0.01742822  0.30938940  0.23056704    -0.17500
C22         C  0.45671599  0.22633887  0.22992111    -0.17500
C23         C  0.01109553  0.22480836  0.29361838    -0.17100
C24         C  0.48621664  0.30832369  0.26606892    -0.17400
O25         O  0.20738306  0.05241944  0.21227327    -0.74600
O26         O  0.29881859  0.94379477  0.21804004    -0.74600
O27         O  0.20457662  0.94776244  0.21484013    -0.74600
O28         O  0.30107354  0.04784696  0.21236665    -0.74700
O29         O  0.29991958  0.05413063  0.28927586    -0.74600
O30         O  0.20347808  0.94968052  0.29193936    -0.74600
O31         O  0.29825512  0.94966160  0.29499159    -0.74600
O32         O  0.20617343  0.05438323  0.28939765    -0.74600
Ni33       Ni  0.25296819  0.99776117  0.21166618     1.25400
Ni34       Ni  0.25189775  0.00198669  0.29418809     1.25400
C35         C  0.19236121  0.07146509  0.25041891     0.87600
C36         C  0.31378183  0.92947677  0.25789437     0.87600
C37         C  0.18833532  0.93175263  0.25325976     0.87600
C38         C  0.31593538  0.06809148  0.24972276     0.87800
C39         C  0.03586095  0.74442198  0.27865406     0.45300
H40         H  0.06652160  0.74017821  0.30125917    -0.03700
C41         C  0.46664056  0.74673460  0.22207948     0.45400
H42         H  0.43627522  0.74478870  0.19886568    -0.03700
C43         C  0.49391710  0.77193699  0.29957354    -0.17400
C44         C  0.04571880  0.77572281  0.23405775    -0.17100
C45         C  0.01801391  0.69109052  0.26517387    -0.17500
C46         C  0.45636705  0.77298077  0.26930977    -0.17500
C47         C  0.00811949  0.77760346  0.20392155    -0.17100
C48         C  0.48523240  0.69233473  0.23113254    -0.17400
O49         O  0.03697574  0.95405309  0.04567596    -0.74600
O50         O  0.03319921  0.05023100  0.44828266    -0.74600
O51         O  0.03263277  0.05786791  0.03983639    -0.74600
O52         O  0.03355752  0.94634561  0.45423417    -0.74700
O53         O  0.45623422  0.94607664  0.45461837    -0.74600
O54         O  0.45532649  0.05473102  0.04162835    -0.74600
O55         O  0.45578283  0.05060598  0.44942106    -0.74600
O56         O  0.45971716  0.95013592  0.04670573    -0.74600
Ni57       Ni  0.03679351  0.00222830  0.99695029     1.25400
Ni58       Ni  0.45389289  0.00028482  0.99814442     1.25400
C59         C  0.49958235  0.93425503  0.06100878     0.87600
C60         C  0.49459398  0.06822359  0.43407062     0.87600
C61         C  0.49347930  0.07563325  0.05391058     0.87600
C62         C  0.49460652  0.92673315  0.44140247     0.87800
C63         C  0.04430892  0.82582134  0.13800878    -0.26400
C64         C  0.00409622  0.81356618  0.16326613    -0.14500
C65         C  0.46180643  0.83800588  0.15027495     0.36100
C66         C  0.46174049  0.87591879  0.11634954    -0.25900
C67         C  0.00260467  0.89186759  0.09497932    -0.15100
C68         C  0.04461557  0.86571135  0.10527588     0.37200
N69         N  0.08751965  0.87945119  0.08291369    -0.89400
H70         H  0.07630410  0.80544538  0.14503137     0.18300
H71         H  0.42901386  0.89424784  0.10789692     0.18300
N72         N  0.41824807  0.82631981  0.17134807    -0.88400
H73         H  0.11394161  0.85377937  0.09180652     0.35700
H74         H  0.09785271  0.91499860  0.09622874     0.40800
H75         H  0.39593920  0.81197986  0.14584445     0.40400
H76         H  0.40389946  0.86063414  0.18324602     0.35300
C77         C  0.45640682  0.81190175  0.36880784    -0.26400
C78         C  0.49715430  0.80289368  0.34334127    -0.14500
C79         C  0.03859610  0.82803470  0.35793791     0.36100
C80         C  0.03645896  0.86660533  0.39112847    -0.25900
C81         C  0.49431474  0.88133462  0.41080811    -0.15100
C82         C  0.45398073  0.85167210  0.40110191     0.37200
N83         N  0.40996187  0.86097931  0.42261508    -0.89400
H84         H  0.42511965  0.79016912  0.36134516     0.18300
H85         H  0.06837004  0.88651621  0.40007057     0.18300
N86         N  0.08336522  0.81586768  0.33974869    -0.88400
H87         H  0.39807604  0.89725781  0.41288106     0.35700
H88         H  0.41412928  0.85931006  0.45848235     0.40800
H89         H  0.10365059  0.80145378  0.36677590     0.40400
H90         H  0.09914853  0.84986911  0.32880988     0.35300
C91         C  0.16438220  0.84014881  0.24690662    -0.26400
C92         C  0.15166259  0.89188095  0.25151899    -0.14500
C93         C  0.10445863  0.90555717  0.24765280     0.36100
C94         C  0.07082768  0.86734744  0.23950284    -0.25900
C95         C  0.08327157  0.81542673  0.23562142    -0.15100
C96         C  0.13055657  0.80167525  0.23935701     0.37200
N97         N  0.14390627  0.74876370  0.23558070    -0.89400
H98         H  0.20083887  0.82989396  0.24877139     0.18300
H99         H  0.03452300  0.87792107  0.23763158     0.18300
N100        N  0.09083340  0.95818885  0.25247132    -0.88400
H101        H  0.17993449  0.74500972  0.23920689     0.35700
H102        H  0.13565076  0.73654894  0.20214501     0.40800
H103        H  0.09831472  0.96905063  0.28646987     0.40400
H104        H  0.05486603  0.96200768  0.24834953     0.35300
C105        C  0.42985137  0.86403613  0.27646000    -0.26400
C106        C  0.41798539  0.81178019  0.27192923    -0.14500
C107        C  0.37079609  0.79864120  0.26367077     0.36100
C108        C  0.33759767  0.83767825  0.25801370    -0.25900
C109        C  0.34993125  0.88957222  0.26196448    -0.15100
C110        C  0.39618435  0.90283257  0.27284512     0.37200
N111        N  0.40911870  0.95576207  0.27859316    -0.89400
H112        H  0.46577729  0.87480514  0.28195528     0.18300
H113        H  0.30169510  0.82736031  0.25119803     0.18300
N114        N  0.35520720  0.74635120  0.26130778    -0.88400
H115        H  0.44472094  0.95912721  0.28532685     0.35700
H116        H  0.39199536  0.96964981  0.30788640     0.40800
H117        H  0.38138752  0.72102058  0.27098301     0.40400
H118        H  0.34638325  0.73862543  0.22689070     0.35300
C119        C  0.45483491  0.18849597  0.12875127    -0.26400
C120        C  0.49572397  0.19709277  0.15432743    -0.14500
C121        C  0.03698136  0.17190819  0.13971666     0.36100
C122        C  0.03485548  0.13451058  0.10562612    -0.25900
C123        C  0.49287385  0.12038867  0.08525479    -0.15100
C124        C  0.45245080  0.14940593  0.09522475     0.37200
N125        N  0.40922655  0.13926788  0.07188960    -0.89400
H126        H  0.42371543  0.20981815  0.13728688     0.18300
H127        H  0.06669515  0.11464726  0.09674857     0.18300
N128        N  0.08156983  0.18213212  0.15943074    -0.88400
H129        H  0.38450555  0.16704713  0.08044056     0.35700
H130        H  0.39620734  0.10461955  0.08473128     0.40800
H131        H  0.10311261  0.19654344  0.13336068     0.40400
H132        H  0.09585284  0.14737216  0.17039688     0.35300
C133        C  0.46441141  0.16215663  0.33899944    -0.26400
C134        C  0.00635296  0.18985222  0.33428117    -0.14500
C135        C  0.04259073  0.18055737  0.36615436     0.36100
C136        C  0.03752717  0.14073043  0.39821572    -0.25900
C137        C  0.99641959  0.11115859  0.40080223    -0.15100
C138        C  0.45889760  0.12321307  0.37170560     0.37200
N139        N  0.41617577  0.09444891  0.37362557    -0.89400
H140        H  0.43584066  0.16903932  0.31595934     0.18300
H141        H  0.06602018  0.13337605  0.42183424     0.18300
N142        N  0.08389591  0.21162852  0.36845409    -0.88400
H143        H  0.39405758  0.10468905  0.34644225     0.35700
H144        H  0.39902092  0.10505866  0.40396905     0.40800
H145        H  0.08195358  0.24330806  0.34650605     0.40400
H146        H  0.11200162  0.18908752  0.35802186     0.35300
C147        C  0.42801176  0.13587540  0.21911108    -0.26400
C148        C  0.41805105  0.18733052  0.22977695    -0.14500
C149        C  0.37368033  0.19894011  0.24783754     0.36100
C150        C  0.34144589  0.15924637  0.25644141    -0.25900
C151        C  0.35205452  0.10811643  0.24570847    -0.15100
C152        C  0.39532342  0.09657020  0.22562013     0.37200
N153        N  0.40641775  0.04469397  0.21284393    -0.89400
H154        H  0.46157911  0.12582464  0.20567131     0.18300
H155        H  0.30761143  0.16858351  0.27048318     0.18300
N156        N  0.36115883  0.25099788  0.25739321    -0.88400
H157        H  0.44057348  0.04227448  0.20068454     0.35700
H158        H  0.38506250  0.03443825  0.18508133     0.40800
H159        H  0.35235606  0.25360635  0.29236472     0.40400
H160        H  0.33151194  0.25972541  0.23800245     0.35300
C161        C  0.13140347  0.20096360  0.25438189    -0.26400
C162        C  0.08498998  0.18542662  0.26138075    -0.14500
C163        C  0.07497810  0.13212676  0.26243605     0.36100
C164        C  0.11082904  0.09641855  0.25825579    -0.25900
C165        C  0.15654307  0.11171842  0.25070979    -0.15100
C166        C  0.16736738  0.16448159  0.24895592     0.37200
N167        N  0.21471491  0.18064189  0.24255698    -0.89400
H168        H  0.13942370  0.24156029  0.25267500     0.18300
H169        H  0.10256893  0.05606495  0.26008120     0.18300
N170        N  0.02839420  0.11325681  0.26529351    -0.88400
H171        H  0.21698573  0.22070694  0.24268565     0.35700
H172        H  0.22519928  0.16853194  0.20976237     0.40800
H173        H  0.02601504  0.09039364  0.29489410     0.40400
H174        H  0.02309998  0.08889079  0.23706356     0.35300
C175        C  0.05350559  0.36540150  0.17063095    -0.26400
C176        C  0.01294869  0.34788800  0.19222231    -0.14500
C177        C  0.46954433  0.35997397  0.17181530     0.36100
C178        C  0.46773418  0.38844035  0.13043193    -0.25900
C179        C  0.00842027  0.40534163  0.10814642    -0.15100
C180        C  0.05198164  0.39446483  0.12953375     0.37200
N181        N  0.09479037  0.41292215  0.10987740    -0.89400
H182        H  0.08683284  0.35576111  0.18581187     0.18300
H183        H  0.43406166  0.39668965  0.11537614     0.18300
N184        N  0.42710828  0.34149807  0.19172666    -0.88400
H185        H  0.12342564  0.39910927  0.12834197     0.35700
H186        H  0.09528108  0.45279103  0.11391082     0.40800
H187        H  0.41024498  0.31853096  0.16723237     0.40400
H188        H  0.40588836  0.37305346  0.19873866     0.35300
C189        C  0.45007417  0.35168605  0.33402643    -0.26400
C190        C  0.48930116  0.34570854  0.30576197    -0.14500
C191        C  0.03160258  0.36938863  0.31995771     0.36100
C192        C  0.03323121  0.39758492  0.36160847    -0.25900
C193        C  0.49425696  0.40214676  0.39060389    -0.15100
C194        C  0.45196392  0.37864334  0.37591476     0.37200
N195        N  0.41024766  0.38011038  0.40290390    -0.89400
H196        H  0.41734964  0.33426150  0.32392685     0.18300
H197        H  0.06563288  0.41568551  0.37170975     0.18300
N198        N  0.07337333  0.36354457  0.29324386    -0.88400
H199        H  0.39870216  0.41799099  0.40533259     0.35700
H200        H  0.41725560  0.36545148  0.43579713     0.40800
H201        H  0.08434146  0.32557732  0.29700150     0.40400
H202        H  0.10014089  0.38649095  0.30646370     0.35300
C203        C  0.45559005  0.61291425  0.12410884    -0.26400
C204        C  0.49983987  0.60079135  0.10613432    -0.14500
C205        C  0.03948990  0.61582260  0.13190623     0.36100
C206        C  0.03377949  0.64404587  0.17323676    -0.25900
C207        C  0.48935476  0.65621735  0.19082410    -0.15100
C208        C  0.44988560  0.63926345  0.16596325     0.37200
N209        N  0.40332983  0.64655729  0.18259876    -0.90300
H210        H  0.42444273  0.60065411  0.10609821     0.18300
H211        H  0.06443407  0.65733919  0.19146610     0.18300
N212        N  0.08539260  0.60254753  0.11643865    -0.88400
H213        H  0.38726613  0.67368283  0.16135322     0.35700
H214        H  0.40307502  0.66052426  0.21634514     0.40800
H215        H  0.08878291  0.56277441  0.11981305     0.40400
H216        H  0.11060559  0.61863669  0.13812525     0.35300
C217        C  0.46949853  0.64716772  0.32522527    -0.26400
C218        C  0.01317055  0.65309615  0.30367554    -0.14500
C219        C  0.05245054  0.63031660  0.32448175     0.36100
C220        C  0.04734798  0.60369625  0.36635832    -0.25900
C221        C  0.00395088  0.59870217  0.38877598    -0.15100
C222        C  0.46448695  0.62085909  0.36758768     0.37200
N223        N  0.41969662  0.61785395  0.38943083    -0.89400
H224        H  0.43936433  0.66549924  0.31011028     0.18300
H225        H  0.07811279  0.58641187  0.38128995     0.18300
N226        N  0.09813763  0.63353732  0.30441964    -0.88400
H227        H  0.39433272  0.63543798  0.36895894     0.35700
H228        H  0.42157556  0.63909691  0.42003889     0.40800
H229        H  0.09784023  0.65339542  0.27309103     0.40400
H230        H  0.10863890  0.59619059  0.29656170     0.35300
O231        O  0.46261101  0.55152204  0.94910460    -0.74600
O232        O  0.46511405  0.45209458  0.54931015    -0.74600
O233        O  0.46375235  0.55463359  0.54456121    -0.74600
O234        O  0.46074313  0.44884915  0.95374694    -0.74700
O235        O  0.03768560  0.45073127  0.94813040    -0.74600
O236        O  0.04093924  0.55260339  0.54620551    -0.74600
O237        O  0.04205817  0.44977646  0.54361345    -0.74600
O238        O  0.03986446  0.55341464  0.95074360    -0.74600
Ni239      Ni  0.46032197  0.50176160  0.99923979     1.25400
Ni240      Ni  0.04287103  0.50161131  0.49708976     1.25400
C241        C  0.00154077  0.56720878  0.93214593     0.87600
C242        C  0.00480820  0.43655590  0.56452598     0.87600
C243        C  0.50215189  0.56859819  0.56305946     0.87600
C244        C  0.49790836  0.43462784  0.93342089     0.87800
C245        C  0.03569349  0.25596352  0.71750480     0.45300
H246        H  0.06557762  0.26031693  0.69391736    -0.03700
C247        C  0.46858476  0.25380339  0.77629527     0.45400
H248        H  0.43956081  0.25355321  0.80136313    -0.03700
C249        C  0.49322776  0.22764583  0.69831261    -0.17400
C250        C  0.04722978  0.22505779  0.76217929    -0.17100
C251        C  0.01742725  0.30939011  0.73056877    -0.17500
C252        C  0.45671720  0.22633869  0.72992120    -0.17500
C253        C  0.01109380  0.22480770  0.79362012    -0.17100
C254        C  0.48621552  0.30832377  0.76607051    -0.17400
O255        O  0.20738262  0.05242154  0.71227554    -0.74600
O256        O  0.29881736  0.94379556  0.71804065    -0.74600
O257        O  0.20457504  0.94776453  0.71484383    -0.74600
O258        O  0.30107376  0.04784767  0.71236616    -0.74700
O259        O  0.29992179  0.05413256  0.78927531    -0.74600
O260        O  0.20348007  0.94968249  0.79194307    -0.74600
O261        O  0.29825721  0.94966363  0.79499213    -0.74600
O262        O  0.20617515  0.05438568  0.78939988    -0.74600
Ni263      Ni  0.25296737  0.99776258  0.71166772     1.25400
Ni264      Ni  0.25189983  0.00198887  0.79418956     1.25400
C265        C  0.19236161  0.07146736  0.75042145     0.87600
C266        C  0.31378230  0.92947809  0.75789450     0.87600
C267        C  0.18833553  0.93175449  0.75326418     0.87600
C268        C  0.31593647  0.06809298  0.74972162     0.87800
C269        C  0.03585898  0.74442111  0.77865529     0.45300
H270        H  0.06651846  0.74017674  0.80126166    -0.03700
C271        C  0.46664083  0.74673508  0.72207794     0.45400
H272        H  0.43627652  0.74479011  0.69886270    -0.03700
C273        C  0.49391413  0.77193512  0.79957376    -0.17400
C274        C  0.04571861  0.77572379  0.73406054    -0.17100
C275        C  0.01801335  0.69108989  0.76517281    -0.17500
C276        C  0.45636524  0.77297954  0.76930869    -0.17500
C277        C  0.00812049  0.77760527  0.70392269    -0.17100
C278        C  0.48523275  0.69233478  0.73113051    -0.17400
O279        O  0.03698055  0.95405343  0.54567546    -0.74600
O280        O  0.03319270  0.05022897  0.94828210    -0.74600
O281        O  0.03263913  0.05786848  0.53983809    -0.74600
O282        O  0.03355183  0.94634362  0.95423474    -0.74700
O283        O  0.45622862  0.94607348  0.95461940    -0.74600
O284        O  0.45533282  0.05473246  0.54162887    -0.74600
O285        O  0.45577692  0.05060263  0.94942188    -0.74600
O286        O  0.45972187  0.95013737  0.54670458    -0.74600
Ni287      Ni  0.03679939  0.00222959  0.49695067     1.25400
Ni288      Ni  0.45389857  0.00028733  0.49814384     1.25400
C289        C  0.49958682  0.93425555  0.56100755     0.87600
C290        C  0.49458738  0.06822155  0.93407125     0.87600
C291        C  0.49348562  0.07563419  0.55391181     0.87600
C292        C  0.49460109  0.92673038  0.94140355     0.87800
C293        C  0.04431258  0.82582396  0.63801112    -0.26400
C294        C  0.00409894  0.81356889  0.66326739    -0.14500
C295        C  0.46180954  0.83800873  0.65027469     0.36100
C296        C  0.46174433  0.87592003  0.61634791    -0.25900
C297        C  0.00260877  0.89186769  0.59497783    -0.15100
C298        C  0.04461989  0.86571311  0.60527712     0.37200
N299        N  0.08752553  0.87945664  0.58291953    -0.89400
H300        H  0.07630793  0.80544923  0.64503582     0.18300
H301        H  0.42901791  0.89424899  0.60789432     0.18300
N302        N  0.41825041  0.82632308  0.67134638    -0.88400
H303        H  0.11394915  0.85378948  0.59181793     0.35700
H304        H  0.09785297  0.91500655  0.59623376     0.40800
H305        H  0.39594275  0.81198233  0.64584185     0.40400
H306        H  0.40390094  0.86063756  0.68324293     0.35300
C307        C  0.45640305  0.81189936  0.86880784    -0.26400
C308        C  0.49715058  0.80289277  0.84334101    -0.14500
C309        C  0.03859211  0.82803387  0.85793850     0.36100
C310        C  0.03645429  0.86660434  0.89112902    -0.25900
C311        C  0.49430996  0.88133182  0.91080941    -0.15100
C312        C  0.45397639  0.85166869  0.90110284     0.37200
N313        N  0.40995666  0.86097664  0.92261395    -0.89400
H314        H  0.42511616  0.79016652  0.86134453     0.18300
H315        H  0.06836514  0.88651539  0.90007166     0.18300
N316        N  0.08336236  0.81586300  0.83975400    -0.88400
H317        H  0.39807144  0.89725473  0.91287800     0.35700
H318        H  0.41412227  0.85930904  0.95848148     0.40800
H319        H  0.10364288  0.80144553  0.86678327     0.40400
H320        H  0.09915036  0.84986282  0.82881787     0.35300
C321        C  0.16438215  0.84015000  0.74691585    -0.26400
C322        C  0.15166272  0.89188246  0.75152512    -0.14500
C323        C  0.10445887  0.90555844  0.74765750     0.36100
C324        C  0.07082796  0.86734846  0.73950784    -0.25900
C325        C  0.08327173  0.81542760  0.73562725    -0.15100
C326        C  0.13055674  0.80167620  0.73936570     0.37200
N327        N  0.14390700  0.74876476  0.73559016    -0.89400
H328        H  0.20083873  0.82989518  0.74878235     0.18300
H329        H  0.03452347  0.87792235  0.73763432     0.18300
N330        N  0.09083407  0.95819052  0.75247341    -0.88400
H331        H  0.17993527  0.74501129  0.73921768     0.35700
H332        H  0.13565315  0.73654992  0.70215427     0.40800
H333        H  0.09831912  0.96905561  0.78646998     0.40400
H334        H  0.05486593  0.96200867  0.74835546     0.35300
C335        C  0.42985119  0.86403542  0.77645894    -0.26400
C336        C  0.41798450  0.81177987  0.77192770    -0.14500
C337        C  0.37079568  0.79864169  0.76366765     0.36100
C338        C  0.33759777  0.83767914  0.75800958    -0.25900
C339        C  0.34993149  0.88957300  0.76196345    -0.15100
C340        C  0.39618457  0.90283233  0.77284578     0.37200
N341        N  0.40911941  0.95576116  0.77859820    -0.89400
H342        H  0.46577725  0.87480367  0.78195419     0.18300
H343        H  0.30169547  0.82736166  0.75119192     0.18300
N344        N  0.35520798  0.74635164  0.76130114    -0.88400
H345        H  0.44472118  0.95912493  0.78533466     0.35700
H346        H  0.39199453  0.96964665  0.80789146     0.40800
H347        H  0.38138160  0.72102284  0.77099863     0.40400
H348        H  0.34640971  0.73862091  0.72687840     0.35300
C349        C  0.45483960  0.18849740  0.62875107    -0.26400
C350        C  0.49572762  0.19709320  0.65432901    -0.14500
C351        C  0.03698554  0.17190940  0.63971902     0.36100
C352        C  0.03486088  0.13451229  0.60562787    -0.25900
C353        C  0.49287974  0.12039002  0.58525571    -0.15100
C354        C  0.45245643  0.14940760  0.59522434     0.37200
N355        N  0.40923282  0.13927025  0.57188767    -0.89400
H356        H  0.42372017  0.20982033  0.63728536     0.18300
H357        H  0.06670098  0.11464986  0.59675032     0.18300
N358        N  0.08157363  0.18213546  0.65943310    -0.88400
H359        H  0.38451042  0.16704672  0.58044149     0.35700
H360        H  0.39621478  0.10461964  0.58472565     0.40800
H361        H  0.10311500  0.19654972  0.63336349     0.40400
H362        H  0.09585907  0.14737591  0.67039792     0.35300
C363        C  0.46440695  0.16215469  0.83899884    -0.26400
C364        C  0.00634885  0.18985023  0.83428206    -0.14500
C365        C  0.04258462  0.18055687  0.86615697     0.36100
C366        C  0.03752062  0.14072943  0.89821791    -0.25900
C367        C  0.99641251  0.11115729  0.90080340    -0.15100
C368        C  0.45889032  0.12321241  0.87170626     0.37200
N369        N  0.41616703  0.09444905  0.87362457    -0.89400
H370        H  0.43583957  0.16903450  0.81595413     0.18300
H371        H  0.06601267  0.13337610  0.92183790     0.18300
N372        N  0.08388618  0.21163343  0.86846018    -0.88400
H373        H  0.39402212  0.10474366  0.84647926     0.35700
H374        H  0.39903946  0.10500326  0.90399850     0.40800
H375        H  0.08193287  0.24332439  0.84652617     0.40400
H376        H  0.11199232  0.18910295  0.85801113     0.35300
C377        C  0.42801267  0.13587642  0.71910926    -0.26400
C378        C  0.41805186  0.18733163  0.72977409    -0.14500
C379        C  0.37368085  0.19894250  0.74783245     0.36100
C380        C  0.34144611  0.15924916  0.75643711    -0.25900
C381        C  0.35205505  0.10811853  0.74570595    -0.15100
C382        C  0.39532457  0.09657153  0.72561931     0.37200
N383        N  0.40642052  0.04469445  0.71284766    -0.89400
H384        H  0.46158052  0.12582506  0.70567097     0.18300
H385        H  0.30761154  0.16858695  0.77047820     0.18300
N386        N  0.36115989  0.25100127  0.75738484    -0.88400
H387        H  0.44057970  0.04227273  0.70069800     0.35700
H388        H  0.38507215  0.03443912  0.68507975     0.40800
H389        H  0.35235797  0.25361308  0.79235622     0.40400
H390        H  0.33151298  0.25972779  0.73799380     0.35300
C391        C  0.13140320  0.20096560  0.75438951    -0.26400
C392        C  0.08498948  0.18542811  0.76138447    -0.14500
C393        C  0.07497757  0.13212839  0.76243858     0.36100
C394        C  0.11082873  0.09642037  0.75825860    -0.25900
C395        C  0.15654294  0.11172057  0.75071296    -0.15100
C396        C  0.16736712  0.16448406  0.74896282     0.37200
N397        N  0.21471438  0.18064537  0.74256519    -0.89400
H398        H  0.13942349  0.24156240  0.75268477     0.18300
H399        H  0.10256873  0.05606682  0.76008454     0.18300
N400        N  0.02839371  0.11325857  0.76529830    -0.88400
H401        H  0.21698762  0.22071020  0.74271355     0.35700
H402        H  0.22519246  0.16855433  0.70976290     0.40800
H403        H  0.02601552  0.09039793  0.79490046     0.40400
H404        H  0.02309818  0.08889031  0.73707020     0.35300
C405        C  0.05350563  0.36540271  0.67063315    -0.26400
C406        C  0.01294832  0.34788901  0.69222383    -0.14500
C407        C  0.46954437  0.35997482  0.67181580     0.36100
C408        C  0.46773504  0.38844042  0.63043185    -0.25900
C409        C  0.00842165  0.40534081  0.60814648    -0.15100
C410        C  0.05198256  0.39446401  0.62953462     0.37200
N411        N  0.09479187  0.41291777  0.60987681    -0.89400
H412        H  0.08683258  0.35576308  0.68581509     0.18300
H413        H  0.43406281  0.39668982  0.61537547     0.18300
N414        N  0.42710778  0.34150092  0.69172752    -0.88400
H415        H  0.12342680  0.39910370  0.62834127     0.35700
H416        H  0.09528487  0.45278671  0.61390867     0.40800
H417        H  0.41024296  0.31853529  0.66723337     0.40400
H418        H  0.40588947  0.37305769  0.69874019     0.35300
C419        C  0.45007202  0.35168581  0.83402811    -0.26400
C420        C  0.48929920  0.34570920  0.80576353    -0.14500
C421        C  0.03160043  0.36938956  0.81996010     0.36100
C422        C  0.03322815  0.39758585  0.86161084    -0.25900
C423        C  0.49425403  0.40214679  0.89060616    -0.15100
C424        C  0.45196123  0.37864301  0.87591672     0.37200
N425        N  0.41024418  0.38011199  0.90290460    -0.89400
H426        H  0.41734772  0.33426101  0.82392812     0.18300
H427        H  0.06562913  0.41568803  0.87171200     0.18300
N428        N  0.07337201  0.36354609  0.79324712    -0.88400
H429        H  0.39869983  0.41799286  0.90533209     0.35700
H430        H  0.41725079  0.36545384  0.93579861     0.40800
H431        H  0.08433058  0.32557404  0.79698990     0.40400
H432        H  0.10014490  0.38647641  0.80647937     0.35300
C433        C  0.45559151  0.61291461  0.62410606    -0.26400
C434        C  0.49984159  0.60079027  0.60613285    -0.14500
C435        C  0.03949104  0.61582006  0.63190611     0.36100
C436        C  0.03378014  0.64404436  0.67323605    -0.25900
C437        C  0.48935528  0.65621678  0.69082239    -0.15100
C438        C  0.44988645  0.63926346  0.66596068     0.37200
N439        N  0.40333038  0.64655935  0.68259473    -0.90300
H440        H  0.42444444  0.60065600  0.60609416     0.18300
H441        H  0.06443451  0.65733720  0.69146606     0.18300
N442        N  0.08539367  0.60254112  0.61644113    -0.88400
H443        H  0.38726854  0.67368554  0.66134820     0.35700
H444        H  0.40307475  0.66052695  0.71634085     0.40800
H445        H  0.08878151  0.56276794  0.61981754     0.40400
H446        H  0.11060652  0.61862982  0.63812819     0.35300
C447        C  0.46949764  0.64716236  0.82522035    -0.26400
C448        C  0.01317048  0.65309401  0.80367342    -0.14500
C449        C  0.05245070  0.63031815  0.82448273     0.36100
C450        C  0.04734710  0.60369863  0.86635971    -0.25900
C451        C  0.00394931  0.59870442  0.88877633    -0.15100
C452        C  0.46448519  0.62085676  0.86758410     0.37200
N453        N  0.41969305  0.61784803  0.88942309    -0.89400
H454        H  0.43936304  0.66548994  0.81010234     0.18300
H455        H  0.07811188  0.58641595  0.88129305     0.18300
N456        N  0.09813914  0.63354302  0.80442407    -0.88400
H457        H  0.39432825  0.63542122  0.86894486     0.35700
H458        H  0.42156526  0.63909912  0.92002709     0.40800
H459        H  0.09784369  0.65340560  0.77309782     0.40400
H460        H  0.10864196  0.59619766  0.79656291     0.35300
O461        O  0.96261330  0.55151969  0.44910388    -0.74600
O462        O  0.96511172  0.45209680  0.04931149    -0.74600
O463        O  0.96374976  0.55463592  0.04456216    -0.74600
O464        O  0.96074582  0.44884793  0.45374521    -0.74700
O465        O  0.53768855  0.45072894  0.44812978    -0.74600
O466        O  0.54093692  0.55260464  0.04620659    -0.74600
O467        O  0.54205582  0.44977766  0.04361335    -0.74600
O468        O  0.53986690  0.55341138  0.45074206    -0.74600
Ni469      Ni  0.96032440  0.50175956  0.49923866     1.25400
Ni470      Ni  0.54286856  0.50161326  0.99709045     1.25400
C471        C  0.50154305  0.56720574  0.43214491     0.87600
C472        C  0.50480614  0.43655731  0.06452640     0.87600
C473        C  0.00214941  0.56859990  0.06306060     0.87600
C474        C  0.99791118  0.43462677  0.43341928     0.87800
C475        C  0.53569277  0.25596240  0.21750209     0.45300
H476        H  0.56557636  0.26031504  0.19391384    -0.03700
C477        C  0.96858565  0.25380402  0.27629445     0.45400
H478        H  0.93956233  0.25355488  0.30136297    -0.03700
C479        C  0.99322564  0.22764565  0.19831123    -0.17400
C480        C  0.54723000  0.22505653  0.26217604    -0.17100
C481        C  0.51742822  0.30938931  0.23056703    -0.17500
C482        C  0.95671603  0.22633887  0.22992121    -0.17500
C483        C  0.51109538  0.22480811  0.29361831    -0.17100
C484        C  0.98621659  0.30832376  0.26606890    -0.17400
O485        O  0.70738299  0.05241927  0.21227329    -0.74600
O486        O  0.79881869  0.94379484  0.21804016    -0.74600
O487        O  0.70457673  0.94776227  0.21484011    -0.74600
O488        O  0.80107347  0.04784711  0.21236690    -0.74700
O489        O  0.79991961  0.05413051  0.28927612    -0.74600
O490        O  0.70347810  0.94968038  0.29193934    -0.74600
O491        O  0.79825509  0.94966162  0.29499172    -0.74600
O492        O  0.70617337  0.05438309  0.28939766    -0.74600
Ni493      Ni  0.75296823  0.99776114  0.21166626     1.25400
Ni494      Ni  0.75189772  0.00198660  0.29418818     1.25400
C495        C  0.69236115  0.07146495  0.25041892     0.87600
C496        C  0.81378189  0.92947689  0.25789451     0.87600
C497        C  0.68833536  0.93175250  0.25325973     0.87600
C498        C  0.81593540  0.06809148  0.24972305     0.87800
C499        C  0.53586105  0.74442179  0.27865408     0.45300
H500        H  0.56652175  0.74017795  0.30125914    -0.03700
C501        C  0.96664051  0.74673477  0.22207947     0.45400
H502        H  0.93627522  0.74478886  0.19886564    -0.03700
C503        C  0.99391701  0.77193711  0.29957354    -0.17400
C504        C  0.54571892  0.77572258  0.23405772    -0.17100
C505        C  0.51801393  0.69109035  0.26517392    -0.17500
C506        C  0.95636696  0.77298093  0.26930978    -0.17500
C507        C  0.50811957  0.77760323  0.20392154    -0.17100
C508        C  0.98523235  0.69233487  0.23113250    -0.17400
O509        O  0.53697586  0.95405290  0.04567602    -0.74600
O510        O  0.53319906  0.05023101  0.44828278    -0.74600
O511        O  0.53263279  0.05786779  0.03983664    -0.74600
O512        O  0.53355756  0.94634563  0.45423420    -0.74700
O513        O  0.95623417  0.94607689  0.45461814    -0.74600
O514        O  0.95532645  0.05473118  0.04162825    -0.74600
O515        O  0.95578293  0.05060632  0.44942096    -0.74600
O516        O  0.95971703  0.95013607  0.04670547    -0.74600
Ni517      Ni  0.53679358  0.00222823  0.99695045     1.25400
Ni518      Ni  0.95389280  0.00028509  0.99814417     1.25400
C519        C  0.99958221  0.93425521  0.06100865     0.87600
C520        C  0.99459414  0.06822370  0.43407047     0.87600
C521        C  0.99347931  0.07563335  0.05391043     0.87600
C522        C  0.99460644  0.92673323  0.44140239     0.87800
C523        C  0.54430897  0.82582099  0.13800867    -0.26400
C524        C  0.50409626  0.81356589  0.16326606    -0.14500
C525        C  0.96180637  0.83800600  0.15027489     0.36100
C526        C  0.96174038  0.87591875  0.11634933    -0.25900
C527        C  0.50260479  0.89186743  0.09497942    -0.15100
C528        C  0.54461563  0.86571106  0.10527583     0.37200
N529        N  0.58751966  0.87945075  0.08291345    -0.89400
H530        H  0.57630412  0.80544496  0.14503119     0.18300
H531        H  0.92901368  0.89424756  0.10789654     0.18300
N532        N  0.91824805  0.82631994  0.17134806    -0.88400
H533        H  0.61394181  0.85377945  0.09180692     0.35700
H534        H  0.59785248  0.91499859  0.09622777     0.40800
H535        H  0.89593911  0.81197975  0.14584428     0.40400
H536        H  0.90389940  0.86063405  0.18324592     0.35300
C537        C  0.95640674  0.81190162  0.36880792    -0.26400
C538        C  0.99715420  0.80289367  0.34334134    -0.14500
C539        C  0.53859618  0.82803477  0.35793774     0.36100
C540        C  0.53645906  0.86660554  0.39112816    -0.25900
C541        C  0.99431461  0.88133457  0.41080818    -0.15100
C542        C  0.95398059  0.85167202  0.40110196     0.37200
N543        N  0.90996175  0.86097911  0.42261515    -0.89400
H544        H  0.92511961  0.79016891  0.36134525     0.18300
H545        H  0.56837012  0.88651654  0.40007010     0.18300
N546        N  0.58336533  0.81586737  0.33974872    -0.88400
H547        H  0.89807582  0.89725765  0.41288122     0.35700
H548        H  0.91412913  0.85930971  0.45848241     0.40800
H549        H  0.60365044  0.80145322  0.36677597     0.40400
H550        H  0.59914902  0.84986866  0.32880997     0.35300
C551        C  0.66438230  0.84014875  0.24690657    -0.26400
C552        C  0.65166263  0.89188085  0.25151897    -0.14500
C553        C  0.60445863  0.90555700  0.24765287     0.36100
C554        C  0.57082772  0.86734724  0.23950292    -0.25900
C555        C  0.58327167  0.81542655  0.23562139    -0.15100
C556        C  0.63055672  0.80167517  0.23935694     0.37200
N557        N  0.64390649  0.74876366  0.23558045    -0.89400
H558        H  0.70083900  0.82989398  0.24877125     0.18300
H559        H  0.53452301  0.87792083  0.23763169     0.18300
N560        N  0.59083349  0.95818868  0.25247162    -0.88400
H561        H  0.67993482  0.74500979  0.23920681     0.35700
H562        H  0.63565129  0.73654917  0.20214479     0.40800
H563        H  0.59831504  0.96905038  0.28646977     0.40400
H564        H  0.55486576  0.96200743  0.24835015     0.35300
C565        C  0.92985139  0.86403638  0.27646016    -0.26400
C566        C  0.91798538  0.81178042  0.27192930    -0.14500
C567        C  0.87079604  0.79864147  0.26367102     0.36100
C568        C  0.83759766  0.83767854  0.25801409    -0.25900
C569        C  0.84993131  0.88957245  0.26196468    -0.15100
C570        C  0.89618441  0.90283284  0.27284523     0.37200
N571        N  0.90911874  0.95576238  0.27859318    -0.89400
H572        H  0.96577730  0.87480539  0.28195554     0.18300
H573        H  0.80169506  0.82736064  0.25119856     0.18300
N574        N  0.85520702  0.74635154  0.26130813    -0.88400
H575        H  0.94472100  0.95912757  0.28532681     0.35700
H576        H  0.89199544  0.96965016  0.30788638     0.40800
H577        H  0.88138742  0.72102079  0.27098284     0.40400
H578        H  0.84638244  0.73862593  0.22689113     0.35300
C579        C  0.95483495  0.18849591  0.12875133    -0.26400
C580        C  0.99572396  0.19709258  0.15432758    -0.14500
C581        C  0.53698135  0.17190828  0.13971660     0.36100
C582        C  0.53485541  0.13451048  0.10562626    -0.25900
C583        C  0.99287394  0.12038877  0.08525468    -0.15100
C584        C  0.95245093  0.14940606  0.09522463     0.37200
N585        N  0.90922674  0.13926795  0.07188951    -0.89400
H586        H  0.92371544  0.20981802  0.13728700     0.18300
H587        H  0.56669503  0.11464700  0.09674891     0.18300
N588        N  0.58156982  0.18213191  0.15943086    -0.88400
H589        H  0.88450637  0.16704862  0.08043878     0.35700
H590        H  0.89620662  0.10462077  0.08473287     0.40800
H591        H  0.60311291  0.19654255  0.13336090     0.40400
H592        H  0.59585236  0.14737181  0.17039738     0.35300
C593        C  0.96441160  0.16215681  0.33899938    -0.26400
C594        C  0.50635275  0.18985200  0.33428115    -0.14500
C595        C  0.54259049  0.18055737  0.36615436     0.36100
C596        C  0.53752708  0.14073037  0.39821574    -0.25900
C597        C  0.49641939  0.11115853  0.40080238    -0.15100
C598        C  0.95889791  0.12321308  0.37170535     0.37200
N599        N  0.91617627  0.09444879  0.37362534    -0.89400
H600        H  0.93584062  0.16903977  0.31595962     0.18300
H601        H  0.56602013  0.13337610  0.42183425     0.18300
N602        N  0.58389524  0.21162924  0.36845414    -0.88400
H603        H  0.89406085  0.10468341  0.34643789     0.35700
H604        H  0.89901850  0.10506413  0.40396546     0.40800
H605        H  0.58195148  0.24330996  0.34650788     0.40400
H606        H  0.61200103  0.18908938  0.35801971     0.35300
C607        C  0.92801172  0.13587544  0.21911114    -0.26400
C608        C  0.91805108  0.18733055  0.22977709    -0.14500
C609        C  0.87368040  0.19894017  0.24783775     0.36100
C610        C  0.84144602  0.15924639  0.25644177    -0.25900
C611        C  0.85205461  0.10811642  0.24570882    -0.15100
C612        C  0.89532342  0.09657022  0.22562021     0.37200
N613        N  0.90641773  0.04469403  0.21284384    -0.89400
H614        H  0.96157906  0.12582466  0.20567137     0.18300
H615        H  0.80761158  0.16858353  0.27048358     0.18300
N616        N  0.86115886  0.25099799  0.25739320    -0.88400
H617        H  0.94057314  0.04227478  0.20068334     0.35700
H618        H  0.88506173  0.03443785  0.18508193     0.40800
H619        H  0.85235615  0.25360671  0.29236474     0.40400
H620        H  0.83151201  0.25972542  0.23800244     0.35300
C621        C  0.63140349  0.20096355  0.25438223    -0.26400
C622        C  0.58498996  0.18542653  0.26138084    -0.14500
C623        C  0.57497806  0.13212668  0.26243606     0.36100
C624        C  0.61082901  0.09641848  0.25825586    -0.25900
C625        C  0.65654304  0.11171834  0.25070980    -0.15100
C626        C  0.66736738  0.16448152  0.24895618     0.37200
N627        N  0.71471493  0.18064191  0.24255738    -0.89400
H628        H  0.63942373  0.24156024  0.25267553     0.18300
H629        H  0.60256890  0.05606487  0.26008135     0.18300
N630        N  0.52839415  0.11325678  0.26529350    -0.88400
H631        H  0.71698585  0.22070676  0.24268665     0.35700
H632        H  0.72519916  0.16853243  0.20976246     0.40800
H633        H  0.52601489  0.09039372  0.29489409     0.40400
H634        H  0.52309991  0.08889067  0.23706351     0.35300
C635        C  0.55350564  0.36540135  0.17063092    -0.26400
C636        C  0.51294875  0.34788799  0.19222235    -0.14500
C637        C  0.96954425  0.35997382  0.17181523     0.36100
C638        C  0.96773406  0.38844036  0.13043194    -0.25900
C639        C  0.50842036  0.40534147  0.10814634    -0.15100
C640        C  0.55198172  0.39446464  0.12953370     0.37200
N641        N  0.59479038  0.41292217  0.10987739    -0.89400
H642        H  0.58683289  0.35576091  0.18581184     0.18300
H643        H  0.93406154  0.39668965  0.11537617     0.18300
N644        N  0.92710825  0.34149773  0.19172656    -0.88400
H645        H  0.62342579  0.39910956  0.12834236     0.35700
H646        H  0.59528085  0.45279081  0.11391055     0.40800
H647        H  0.91024495  0.31853066  0.16723235     0.40400
H648        H  0.90588819  0.37305315  0.19873870     0.35300
C649        C  0.95007408  0.35168608  0.33402640    -0.26400
C650        C  0.98930110  0.34570848  0.30576202    -0.14500
C651        C  0.53160270  0.36938860  0.31995775     0.36100
C652        C  0.53323128  0.39758495  0.36160848    -0.25900
C653        C  0.99425688  0.40214675  0.39060389    -0.15100
C654        C  0.95196380  0.37864342  0.37591469     0.37200
N655        N  0.91024739  0.38011078  0.40290360    -0.89400
H656        H  0.91734953  0.33426164  0.32392675     0.18300
H657        H  0.56563287  0.41568574  0.37170973     0.18300
N658        N  0.57337350  0.36354474  0.29324383    -0.88400
H659        H  0.89870209  0.41799144  0.40533218     0.35700
H660        H  0.91725502  0.36545183  0.43579687     0.40800
H661        H  0.58433961  0.32557654  0.29699807     0.40400
H662        H  0.60014220  0.38648766  0.30646623     0.35300
C663        C  0.95558991  0.61291459  0.12410868    -0.26400
C664        C  0.99983968  0.60079149  0.10613424    -0.14500
C665        C  0.53949010  0.61582256  0.13190631     0.36100
C666        C  0.53377966  0.64404592  0.17323681    -0.25900
C667        C  0.98935461  0.65621744  0.19082407    -0.15100
C668        C  0.94988543  0.63926375  0.16596307     0.37200
N669        N  0.90332962  0.64655773  0.18259848    -0.90300
H670        H  0.92444259  0.60065465  0.10609795     0.18300
H671        H  0.56443420  0.65733961  0.19146601     0.18300
N672        N  0.58539291  0.60254806  0.11643852    -0.88400
H673        H  0.88726566  0.67368259  0.16135219     0.35700
H674        H  0.90307466  0.66052556  0.21634435     0.40800
H675        H  0.58878330  0.56277489  0.11981133     0.40400
H676        H  0.61060573  0.61863612  0.13812604     0.35300
C677        C  0.96949861  0.64716812  0.32522536    -0.26400
C678        C  0.51317054  0.65309595  0.30367557    -0.14500
C679        C  0.55245055  0.63031659  0.32448193     0.36100
C680        C  0.54734801  0.60369632  0.36635851    -0.25900
C681        C  0.50395091  0.59870218  0.38877610    -0.15100
C682        C  0.96448698  0.62085939  0.36758770     0.37200
N683        N  0.91969666  0.61785461  0.38943093    -0.89400
H684        H  0.93936447  0.66549987  0.31011049     0.18300
H685        H  0.57811284  0.58641198  0.38129015     0.18300
N686        N  0.59813772  0.63353740  0.30441997    -0.88400
H687        H  0.89433298  0.63543934  0.36895936     0.35700
H688        H  0.92157596  0.63909714  0.42003923     0.40800
H689        H  0.59784030  0.65339521  0.27309122     0.40400
H690        H  0.60863914  0.59619074  0.29656234     0.35300
O691        O  0.96261097  0.55152204  0.94910454    -0.74600
O692        O  0.96511401  0.45209466  0.54931015    -0.74600
O693        O  0.96375218  0.55463376  0.54456110    -0.74600
O694        O  0.96074304  0.44884911  0.95374698    -0.74700
O695        O  0.53768570  0.45073121  0.94813037    -0.74600
O696        O  0.54093941  0.55260320  0.54620554    -0.74600
O697        O  0.54205821  0.44977637  0.54361345    -0.74600
O698        O  0.53986452  0.55341444  0.95074348    -0.74600
Ni699      Ni  0.96032189  0.50176160  0.99923979     1.25400
Ni700      Ni  0.54287111  0.50161120  0.49708976     1.25400
C701        C  0.50154080  0.56720870  0.93214593     0.87600
C702        C  0.50480824  0.43655585  0.56452599     0.87600
C703        C  0.00215167  0.56859840  0.56305936     0.87600
C704        C  0.99790826  0.43462780  0.93342095     0.87800
C705        C  0.53569353  0.25596342  0.71750478     0.45300
H706        H  0.56557765  0.26031681  0.69391731    -0.03700
C707        C  0.96858475  0.25380349  0.77629530     0.45400
H708        H  0.93956078  0.25355334  0.80136314    -0.03700
C709        C  0.99322771  0.22764580  0.69831268    -0.17400
C710        C  0.54722974  0.22505759  0.76217930    -0.17100
C711        C  0.51742727  0.30939000  0.73056873    -0.17500
C712        C  0.95671718  0.22633871  0.72992129    -0.17500
C713        C  0.51109369  0.22480748  0.79362007    -0.17100
C714        C  0.98621542  0.30832386  0.76607049    -0.17400
O715        O  0.70738257  0.05242132  0.71227573    -0.74600
O716        O  0.79881752  0.94379560  0.71804081    -0.74600
O717        O  0.70457529  0.94776425  0.71484386    -0.74600
O718        O  0.80107375  0.04784774  0.71236650    -0.74700
O719        O  0.79992180  0.05413249  0.78927566    -0.74600
O720        O  0.70348001  0.94968247  0.79194310    -0.74600
O721        O  0.79825710  0.94966357  0.79499230    -0.74600
O722        O  0.70617516  0.05438569  0.78940007    -0.74600
Ni723      Ni  0.75296746  0.99776250  0.71166789     1.25400
Ni724      Ni  0.75189979  0.00198883  0.79418974     1.25400
C725        C  0.69236155  0.07146722  0.75042160     0.87600
C726        C  0.81378231  0.92947809  0.75789471     0.87600
C727        C  0.68833564  0.93175433  0.75326419     0.87600
C728        C  0.81593650  0.06809296  0.74972200     0.87800
C729        C  0.53585897  0.74442099  0.77865531     0.45300
H730        H  0.56651841  0.74017658  0.80126172    -0.03700
C731        C  0.96664078  0.74673520  0.72207793     0.45400
H732        H  0.93627648  0.74479028  0.69886269    -0.03700
C733        C  0.99391413  0.77193518  0.79957379    -0.17400
C734        C  0.54571869  0.77572364  0.73406055    -0.17100
C735        C  0.51801337  0.69108976  0.76517286    -0.17500
C736        C  0.95636524  0.77297962  0.76930870    -0.17500
C737        C  0.50812054  0.77760515  0.70392272    -0.17100
C738        C  0.98523267  0.69233489  0.73113049    -0.17400
O739        O  0.53698057  0.95405336  0.54567548    -0.74600
O740        O  0.53319269  0.05022901  0.94828233    -0.74600
O741        O  0.53263912  0.05786843  0.53983816    -0.74600
O742        O  0.53355196  0.94634363  0.95423479    -0.74700
O743        O  0.95622849  0.94607384  0.95461905    -0.74600
O744        O  0.95533280  0.05473258  0.54162885    -0.74600
O745        O  0.95577688  0.05060298  0.94942162    -0.74600
O746        O  0.95972184  0.95013741  0.54670438    -0.74600
Ni747      Ni  0.53679936  0.00222957  0.49695073     1.25400
Ni748      Ni  0.95389859  0.00028752  0.49814370     1.25400
C749        C  0.99958678  0.93425560  0.56100745     0.87600
C750        C  0.99458744  0.06822166  0.93407101     0.87600
C751        C  0.99348563  0.07563426  0.55391174     0.87600
C752        C  0.99460095  0.92673052  0.94140340     0.87800
C753        C  0.54431254  0.82582363  0.63801098    -0.26400
C754        C  0.50409897  0.81356875  0.66326741    -0.14500
C755        C  0.96180946  0.83800876  0.65027455     0.36100
C756        C  0.96174424  0.87591997  0.61634770    -0.25900
C757        C  0.50260883  0.89186760  0.59497789    -0.15100
C758        C  0.54461988  0.86571279  0.60527698     0.37200
N759        N  0.58752551  0.87945597  0.58291916    -0.89400
H760        H  0.57630779  0.80544867  0.64503555     0.18300
H761        H  0.92901779  0.89424875  0.60789392     0.18300
N762        N  0.91825025  0.82632300  0.67134610    -0.88400
H763        H  0.61394911  0.85378919  0.59181803     0.35700
H764        H  0.59785290  0.91500624  0.59623281     0.40800
H765        H  0.89594275  0.81198232  0.64584154     0.40400
H766        H  0.90390069  0.86063750  0.68324268     0.35300
C767        C  0.95640292  0.81189925  0.86880792    -0.26400
C768        C  0.99715053  0.80289264  0.84334118    -0.14500
C769        C  0.53859223  0.82803396  0.85793825     0.36100
C770        C  0.53645442  0.86660440  0.89112882    -0.25900
C771        C  0.99430979  0.88133183  0.91080942    -0.15100
C772        C  0.95397625  0.85166867  0.90110284     0.37200
N773        N  0.90995654  0.86097661  0.92261399    -0.89400
H774        H  0.92511603  0.79016644  0.86134452     0.18300
H775        H  0.56836529  0.88651544  0.90007145     0.18300
N776        N  0.58336243  0.81586282  0.83975381    -0.88400
H777        H  0.89807140  0.89725474  0.91287815     0.35700
H778        H  0.91412224  0.85930889  0.95848152     0.40800
H779        H  0.60364280  0.80144483  0.86678311     0.40400
H780        H  0.59915085  0.84986250  0.82881791     0.35300
C781        C  0.66438233  0.84014990  0.74691552    -0.26400
C782        C  0.65166284  0.89188231  0.75152511    -0.14500
C783        C  0.60445894  0.90555823  0.74765778     0.36100
C784        C  0.57082803  0.86734826  0.73950814    -0.25900
C785        C  0.58327184  0.81542743  0.73562722    -0.15100
C786        C  0.63055691  0.80167609  0.73936541     0.37200
N787        N  0.64390730  0.74876472  0.73558979    -0.89400
H788        H  0.70083893  0.82989513  0.74878176     0.18300
H789        H  0.53452352  0.87792213  0.73763488     0.18300
N790        N  0.59083411  0.95819030  0.75247379    -0.88400
H791        H  0.67993549  0.74501128  0.73921754     0.35700
H792        H  0.63565366  0.73655000  0.70215369     0.40800
H793        H  0.59831928  0.96905539  0.78647038     0.40400
H794        H  0.55486597  0.96200843  0.74835601     0.35300
C795        C  0.92985121  0.86403545  0.77645900    -0.26400
C796        C  0.91798448  0.81177992  0.77192775    -0.14500
C797        C  0.87079562  0.79864174  0.76366793     0.36100
C798        C  0.83759767  0.83767919  0.75801012    -0.25900
C799        C  0.84993147  0.88957303  0.76196377    -0.15100
C800        C  0.89618458  0.90283238  0.77284601     0.37200
N801        N  0.90911939  0.95576121  0.77859854    -0.89400
H802        H  0.96577731  0.87480368  0.78195412     0.18300
H803        H  0.80169534  0.82736172  0.75119268     0.18300
N804        N  0.85520781  0.74635176  0.76130121    -0.88400
H805        H  0.94472118  0.95912493  0.78533525     0.35700
H806        H  0.89199436  0.96964674  0.80789162     0.40800
H807        H  0.88138162  0.72102277  0.77099846     0.40400
H808        H  0.84640912  0.73862134  0.72687873     0.35300
C809        C  0.95483953  0.18849723  0.62875117    -0.26400
C810        C  0.99572754  0.19709305  0.65432911    -0.14500
C811        C  0.53698559  0.17190941  0.63971903     0.36100
C812        C  0.53486085  0.13451224  0.60562797    -0.25900
C813        C  0.99287978  0.12039008  0.58525564    -0.15100
C814        C  0.95245647  0.14940760  0.59522427     0.37200
N815        N  0.90923289  0.13927029  0.57188760    -0.89400
H816        H  0.92372001  0.20981996  0.63728553     0.18300
H817        H  0.56670094  0.11464972  0.59675054     0.18300
N818        N  0.58157365  0.18213505  0.65943340    -0.88400
H819        H  0.88451134  0.16704817  0.58043949     0.35700
H820        H  0.89621377  0.10462078  0.58472741     0.40800
H821        H  0.60311548  0.19654889  0.63336379     0.40400
H822        H  0.59585862  0.14737551  0.67039845     0.35300
C823        C  0.96440724  0.16215480  0.83899874    -0.26400
C824        C  0.50634858  0.18985010  0.83428210    -0.14500
C825        C  0.54258428  0.18055695  0.86615708     0.36100
C826        C  0.53752043  0.14072940  0.89821795    -0.25900
C827        C  0.49641229  0.11115723  0.90080358    -0.15100
C828        C  0.95889070  0.12321238  0.87170595     0.37200
N829        N  0.91616763  0.09444881  0.87362412    -0.89400
H830        H  0.93583963  0.16903489  0.81595436     0.18300
H831        H  0.56601253  0.13337614  0.92183791     0.18300
N832        N  0.58388543  0.21163416  0.86846042    -0.88400
H833        H  0.89402530  0.10473835  0.84647496     0.35700
H834        H  0.89903720  0.10500811  0.90399502     0.40800
H835        H  0.58193087  0.24332623  0.84652805     0.40400
H836        H  0.61199169  0.18910463  0.85800940     0.35300
C837        C  0.92801260  0.13587645  0.71910935    -0.26400
C838        C  0.91805185  0.18733163  0.72977428    -0.14500
C839        C  0.87368088  0.19894250  0.74783272     0.36100
C840        C  0.84144618  0.15924914  0.75643751    -0.25900
C841        C  0.85205513  0.10811848  0.74570637    -0.15100
C842        C  0.89532457  0.09657152  0.72561945     0.37200
N843        N  0.90642045  0.04469446  0.71284763    -0.89400
H844        H  0.96158043  0.12582510  0.70567098     0.18300
H845        H  0.80761160  0.16858694  0.77047857     0.18300
N846        N  0.86115990  0.25100130  0.75738489    -0.88400
H847        H  0.94057940  0.04227312  0.70069652     0.35700
H848        H  0.88507128  0.03443857  0.68508078     0.40800
H849        H  0.85235795  0.25361333  0.79235625     0.40400
H850        H  0.83151299  0.25972770  0.73799374     0.35300
C851        C  0.63140312  0.20096539  0.75438973    -0.26400
C852        C  0.58498942  0.18542792  0.76138459    -0.14500
C853        C  0.57497751  0.13212821  0.76243880     0.36100
C854        C  0.61082867  0.09642018  0.75825888    -0.25900
C855        C  0.65654286  0.11172038  0.75071305    -0.15100
C856        C  0.66736703  0.16448388  0.74896297     0.37200
N857        N  0.71471431  0.18064519  0.74256556    -0.89400
H858        H  0.63942343  0.24156220  0.75268514     0.18300
H859        H  0.60256865  0.05606665  0.76008496     0.18300
N860        N  0.52839364  0.11325845  0.76529835    -0.88400
H861        H  0.71698761  0.22071009  0.74271465     0.35700
H862        H  0.72519230  0.16855489  0.70976316     0.40800
H863        H  0.52601530  0.09039780  0.79490062     0.40400
H864        H  0.52309822  0.08889027  0.73707028     0.35300
C865        C  0.55350567  0.36540245  0.67063306    -0.26400
C866        C  0.51294837  0.34788892  0.69222384    -0.14500
C867        C  0.96954432  0.35997482  0.67181572     0.36100
C868        C  0.96773500  0.38844044  0.63043179    -0.25900
C869        C  0.50842169  0.40534072  0.60814649    -0.15100
C870        C  0.55198262  0.39446382  0.62953457     0.37200
N871        N  0.59479191  0.41291772  0.60987684    -0.89400
H872        H  0.58683263  0.35576267  0.68581493     0.18300
H873        H  0.93406276  0.39668976  0.61537536     0.18300
N874        N  0.92710774  0.34150082  0.69172732    -0.88400
H875        H  0.62342687  0.39910391  0.62834152     0.35700
H876        H  0.59528469  0.45278663  0.61390854     0.40800
H877        H  0.91024306  0.31853503  0.66723303     0.40400
H878        H  0.90588932  0.37305742  0.69873982     0.35300
C879        C  0.95007187  0.35168586  0.83402806    -0.26400
C880        C  0.98929908  0.34570916  0.80576358    -0.14500
C881        C  0.53160065  0.36938946  0.81996015     0.36100
C882        C  0.53322826  0.39758589  0.86161082    -0.25900
C883        C  0.99425393  0.40214674  0.89060620    -0.15100
C884        C  0.95196107  0.37864312  0.87591665     0.37200
N885        N  0.91024391  0.38011239  0.90290433    -0.89400
H886        H  0.91734757  0.33426113  0.82392800     0.18300
H887        H  0.56562913  0.41568832  0.87171193     0.18300
N888        N  0.57337232  0.36354621  0.79324716    -0.88400
H889        H  0.89869973  0.41799345  0.90533174     0.35700
H890        H  0.91725021  0.36545423  0.93579833     0.40800
H891        H  0.58432814  0.32557256  0.79698541     0.40400
H892        H  0.60014677  0.38647172  0.80648281     0.35300
C893        C  0.95559130  0.61291490  0.62410593    -0.26400
C894        C  0.99984134  0.60079043  0.60613276    -0.14500
C895        C  0.53949132  0.61582015  0.63190607     0.36100
C896        C  0.53378041  0.64404445  0.67323604    -0.25900
C897        C  0.98935505  0.65621684  0.69082238    -0.15100
C898        C  0.94988620  0.63926364  0.66596057     0.37200
N899        N  0.90333009  0.64655976  0.68259443    -0.90300
H900        H  0.92444423  0.60065656  0.60609387     0.18300
H901        H  0.56443476  0.65733756  0.69146595     0.18300
N902        N  0.58539402  0.60254181  0.61644080    -0.88400
H903        H  0.88726810  0.67368525  0.66134710     0.35700
H904        H  0.90307432  0.66052840  0.71634006     0.40800
H905        H  0.58878191  0.56276855  0.61981583     0.40400
H906        H  0.61060678  0.61862953  0.63812852     0.35300
C907        C  0.96949768  0.64716266  0.82522042    -0.26400
C908        C  0.51317049  0.65309382  0.80367345    -0.14500
C909        C  0.55245075  0.63031821  0.82448293     0.36100
C910        C  0.54734716  0.60369886  0.86635999    -0.25900
C911        C  0.50394932  0.59870448  0.88877644    -0.15100
C912        C  0.96448522  0.62085691  0.86758408     0.37200
N913        N  0.91969312  0.61784830  0.88942318    -0.89400
H914        H  0.93936311  0.66549042  0.81010252     0.18300
H915        H  0.57811198  0.58641639  0.88129344     0.18300
N916        N  0.59813923  0.63354301  0.80442439    -0.88400
H917        H  0.89432838  0.63542196  0.86894508     0.35700
H918        H  0.92156551  0.63909902  0.92002721     0.40800
H919        H  0.59784373  0.65340545  0.77309789     0.40400
H920        H  0.60864211  0.59619776  0.79656342     0.35300
loop_ 
_geom_bond_atom_site_label_1 
_geom_bond_atom_site_label_2 
_geom_bond_distance 
_geom_bond_site_symmetry_2 
_ccdc_geom_bond_type 
O1           Ni9   1.947       .  S
O1          C471   1.288       .  A
O2         Ni239   1.948   1_554  S
O2          C472   1.289       .  A
O3         Ni239   1.905   1_554  S
O3           C13   1.279       .  A
O4           Ni9   1.907       .  S
O4           C14   1.276       .  A
O5         Ni240   1.946       .  S
O5          C474   1.289   1_455  A
O6          Ni10   1.947   1_554  S
O6          C473   1.288       .  A
O7          Ni10   1.907   1_554  S
O7           C12   1.277       .  A
O8         Ni240   1.905       .  S
O8           C11   1.278       .  A
Ni9         O232   1.948       .  S
Ni9         O233   1.905       .  S
Ni9        Ni700   2.374       .  S
Ni10        O235   1.946       .  S
Ni10        O238   1.905       .  S
Ni10       Ni699   2.374   1_455  S
C11         O461   1.288   1_455  A
C11         C221   1.501       .  S
C12         O462   1.289   1_455  A
C12         C179   1.505       .  S
C13         O466   1.288       .  A
C13         C204   1.504       .  S
C14         O465   1.289       .  A
C14         C193   1.504       .  S
C15          H16   1.103       .  S
C15          C21   1.537       .  S
C15          C20   1.559       .  S
C15         C479   1.529   1_455  S
C17          H18   1.106       .  S
C17          C22   1.558       .  S
C17          C24   1.536       .  S
C17         C483   1.523       .  S
C19         C475   1.529       .  S
C19          C22   1.393       .  D
C19         C120   1.503       .  S
C20          C23   1.382       .  D
C20         C162   1.501       .  S
C21         C484   1.365   1_455  D
C21         C176   1.501       .  S
C22         C148   1.505       .  S
C23         C477   1.523   1_455  S
C23         C134   1.494       .  S
C24         C481   1.365       .  D
C24         C190   1.509       .  S
O25         Ni33   1.939   1_545  S
O25          C35   1.286       .  A
O26         Ni33   1.939       .  S
O26          C36   1.286       .  A
O27         Ni33   1.906       .  S
O27          C37   1.276       .  A
O28         Ni33   1.899   1_545  S
O28          C38   1.276       .  A
O29         Ni34   1.940       .  S
O29          C38   1.286       .  A
O30         Ni34   1.947   1_565  S
O30          C37   1.288       .  A
O31         Ni34   1.910   1_565  S
O31          C36   1.277       .  A
O32         Ni34   1.903       .  S
O32          C35   1.276       .  A
Ni33        Ni34   2.390   1_565  S
C35         C165   1.472       .  S
C36         C109   1.477       .  S
C37          C92   1.479       .  S
C38         C151   1.475       .  S
C39          H40   1.103       .  S
C39          C45   1.531       .  S
C39          C44   1.552       .  S
C39         C503   1.530   1_455  S
C41          H42   1.102       .  S
C41          C46   1.557       .  S
C41          C48   1.539       .  S
C41         C507   1.530       .  S
C43         C499   1.530       .  S
C43          C46   1.390       .  D
C43          C78   1.504       .  S
C44          C47   1.389       .  D
C44          C95   1.494       .  S
C45         C508   1.363   1_455  D
C45         C218   1.497       .  S
C46         C106   1.501       .  S
C47         C501   1.530   1_455  S
C47          C64   1.509       .  S
C48         C505   1.363       .  D
C48         C207   1.504       .  S
O49         Ni57   1.888   1_564  S
O49         C519   1.272   1_455  A
O50        Ni287   1.886       .  S
O50         C520   1.274   1_455  A
O51         Ni57   1.913   1_554  S
O51         C521   1.285   1_455  A
O52        Ni287   1.912   1_565  S
O52         C522   1.284   1_455  A
O53        Ni288   1.894   1_565  S
O53          C62   1.273       .  A
O54         Ni58   1.897   1_554  S
O54          C61   1.274       .  A
O55        Ni288   1.926       .  S
O55          C60   1.285       .  A
O56         Ni58   1.926   1_564  S
O56          C59   1.288       .  A
Ni57        O280   1.886       .  S
Ni57        O282   1.912   1_545  S
Ni57       Ni518   2.384   1_455  S
Ni58        O283   1.894   1_545  S
Ni58        O285   1.926       .  S
Ni58       Ni517   2.384       .  S
C59         O509   1.272       .  A
C59         C527   1.481       .  S
C60         O510   1.274       .  A
C60         C597   1.477       .  S
C61         O511   1.285       .  A
C61         C123   1.478       .  S
C62         O512   1.284       .  A
C62          C81   1.478       .  S
C63          C64   1.405       .  A
C63          C68   1.406       .  A
C63          H70   1.083       .  S
C64         C525   1.424   1_455  A
C65          C66   1.393       .  A
C65         C524   1.424       .  A
C65          N72   1.426       .  S
C66         C527   1.391       .  A
C66          H71   1.084       .  S
C67         C519   1.481   1_455  S
C67          C68   1.420       .  A
C67         C526   1.391   1_455  A
C68          N69   1.438       .  S
N69          H73   1.046       .  S
N69          H74   1.046       .  S
N72          H75   1.046       .  S
N72          H76   1.044       .  S
C77          C78   1.405       .  A
C77          C82   1.398       .  A
C77          H84   1.083       .  S
C78         C539   1.422       .  A
C79          C80   1.392       .  A
C79         C538   1.422   1_455  A
C79          N86   1.428       .  S
C80         C541   1.394   1_455  A
C80          H85   1.084       .  S
C81          C82   1.420       .  A
C81         C540   1.394       .  A
C82          N83   1.432       .  S
N83          H87   1.045       .  S
N83          H88   1.045       .  S
N86          H89   1.045       .  S
N86          H90   1.044       .  S
C91          C92   1.404       .  A
C91          C96   1.412       .  A
C91          H98   1.084       .  S
C92          C93   1.409       .  A
C93          C94   1.406       .  A
C93         N100   1.434       .  S
C94          C95   1.405       .  A
C94          H99   1.082       .  S
C95          C96   1.411       .  A
C96          N97   1.437       .  S
N97         H101   1.046       .  S
N97         H102   1.045       .  S
N100        H103   1.046       .  S
N100        H104   1.046       .  S
C105        C106   1.409       .  A
C105        C110   1.406       .  A
C105        H112   1.081       .  S
C106        C107   1.419       .  A
C107        C108   1.406       .  A
C107        N114   1.435       .  S
C108        C109   1.402       .  A
C108        H113   1.084       .  S
C109        C110   1.409       .  A
C110        N111   1.437       .  S
N111        H115   1.045       .  S
N111        H116   1.046       .  S
N114        H117   1.041       .  S
N114        H118   1.047       .  S
C119        C120   1.406       .  A
C119        C124   1.408       .  A
C119        H126   1.083       .  S
C120        C581   1.422       .  A
C121        C122   1.388       .  A
C121        C580   1.422   1_455  A
C121        N128   1.427       .  S
C122        C583   1.391   1_455  A
C122        H127   1.084       .  S
C123        C124   1.418       .  A
C123        C582   1.391       .  A
C124        N125   1.438       .  S
N125        H129   1.046       .  S
N125        H130   1.045       .  S
N128        H131   1.046       .  S
N128        H132   1.045       .  S
C133        C138   1.396       .  A
C133        C594   1.411       .  A
C133        H140   1.073       .  S
C134        C135   1.412       .  A
C134        C593   1.411   1_455  A
C135        C136   1.399       .  A
C135        N142   1.437       .  S
C136        C137   1.411   1_455  A
C136        H141   1.084       .  S
C137        C520   1.477       .  S
C137        C598   1.404       .  A
C138        C597   1.404       .  A
C138        N139   1.438       .  S
N139        H143   1.046       .  S
N139        H144   1.045       .  S
N142        H145   1.043       .  S
N142        H146   1.045       .  S
C147        C148   1.406       .  A
C147        C152   1.401       .  A
C147        H154   1.074       .  S
C148        C149   1.413       .  A
C149        C150   1.409       .  A
C149        N156   1.432       .  S
C150        C151   1.403       .  A
C150        H155   1.083       .  S
C151        C152   1.407       .  A
C152        N153   1.438       .  S
N153        H157   1.046       .  S
N153        H158   1.045       .  S
N156        H159   1.046       .  S
N156        H160   1.046       .  S
C161        C162   1.408       .  A
C161        C166   1.416       .  A
C161        H168   1.083       .  S
C162        C163   1.418       .  A
C163        C164   1.396       .  A
C163        N170   1.428       .  S
C164        C165   1.390       .  A
C164        H169   1.079       .  S
C165        C166   1.410       .  A
C166        N167   1.436       .  S
N167        H171   1.046       .  S
N167        H172   1.045       .  S
N170        H173   1.045       .  S
N170        H174   1.045       .  S
C175        C176   1.399       .  A
C175        C180   1.410       .  A
C175        H182   1.084       .  S
C176        C637   1.416   1_455  A
C177        C178   1.410       .  A
C177        C636   1.416       .  A
C177        N184   1.432       .  S
C178        C639   1.406       .  A
C178        H183   1.083       .  S
C179        C180   1.426       .  A
C179        C638   1.406   1_455  A
C180        N181   1.438       .  S
N181        H185   1.046       .  S
N181        H186   1.046       .  S
N184        H187   1.046       .  S
N184        H188   1.045       .  S
C189        C190   1.403       .  A
C189        C194   1.402       .  A
C189        H196   1.084       .  S
C190        C651   1.423       .  A
C191        C192   1.412       .  A
C191        C650   1.423   1_455  A
C191        N198   1.437       .  S
C192        C653   1.406   1_455  A
C192        H197   1.083       .  S
C193        C194   1.425       .  A
C193        C652   1.406       .  A
C194        N195   1.433       .  S
N195        H199   1.045       .  S
N195        H200   1.045       .  S
N198        H201   1.045       .  S
N198        H202   1.046       .  S
C203        C204   1.412       .  A
C203        C208   1.402       .  A
C203        H210   1.083       .  S
C204        C665   1.416       .  A
C205        C206   1.414       .  A
C205        C664   1.416   1_455  A
C205        N212   1.437       .  S
C206        C667   1.412   1_455  A
C206        H211   1.083       .  S
C207        C208   1.413       .  A
C207        C666   1.412       .  A
C208        N209   1.436       .  S
N209        H213   1.045       .  S
N209        H214   1.042       .  S
N212        H215   1.046       .  S
N212        H216   1.045       .  S
C217        C222   1.412       .  A
C217        C678   1.411       .  A
C217        H224   1.082       .  S
C218        C219   1.412       .  A
C218        C677   1.411   1_455  A
C219        C220   1.404       .  A
C219        N226   1.439       .  S
C220        C221   1.413       .  A
C220        H225   1.083       .  S
C221        C682   1.414   1_455  A
C222        C681   1.414       .  A
C222        N223   1.437       .  S
N223        H227   1.046       .  S
N223        H228   1.046       .  S
N226        H229   1.044       .  S
N226        H230   1.045       .  S
O231       Ni239   1.947       .  S
O231        C701   1.288       .  A
O232        C702   1.289       .  A
O233        C243   1.279       .  A
O234       Ni239   1.907       .  S
O234        C244   1.276       .  A
O235        C704   1.289   1_455  A
O236       Ni240   1.947       .  S
O236        C703   1.288       .  A
O237       Ni240   1.907       .  S
O237        C242   1.277       .  A
O238        C241   1.278       .  A
Ni239      Ni470   2.374       .  S
Ni240      Ni469   2.374   1_455  S
C241        O691   1.288   1_455  A
C241        C451   1.501       .  S
C242        O692   1.289   1_455  A
C242        C409   1.505       .  S
C243        O696   1.288       .  A
C243        C434   1.504       .  S
C244        O695   1.289       .  A
C244        C423   1.504       .  S
C245        H246   1.103       .  S
C245        C251   1.537       .  S
C245        C250   1.559       .  S
C245        C709   1.529   1_455  S
C247        H248   1.106       .  S
C247        C713   1.523       .  S
C247        C252   1.558       .  S
C247        C254   1.536       .  S
C249        C705   1.529       .  S
C249        C252   1.393       .  D
C249        C350   1.503       .  S
C250        C253   1.382       .  D
C250        C392   1.501       .  S
C251        C714   1.365   1_455  D
C251        C406   1.501       .  S
C252        C378   1.504       .  S
C253        C707   1.523   1_455  S
C253        C364   1.494       .  S
C254        C711   1.365       .  D
C254        C420   1.509       .  S
O255       Ni263   1.939   1_545  S
O255        C265   1.286       .  A
O256       Ni263   1.939       .  S
O256        C266   1.286       .  A
O257       Ni263   1.906       .  S
O257        C267   1.276       .  A
O258       Ni263   1.899   1_545  S
O258        C268   1.276       .  A
O259       Ni264   1.940       .  S
O259        C268   1.286       .  A
O260       Ni264   1.947   1_565  S
O260        C267   1.288       .  A
O261       Ni264   1.910   1_565  S
O261        C266   1.277       .  A
O262       Ni264   1.903       .  S
O262        C265   1.276       .  A
Ni263      Ni264   2.390   1_565  S
C265        C395   1.472       .  S
C266        C339   1.477       .  S
C267        C322   1.479       .  S
C268        C381   1.475       .  S
C269        H270   1.103       .  S
C269        C275   1.531       .  S
C269        C274   1.552       .  S
C269        C733   1.530   1_455  S
C271        H272   1.102       .  S
C271        C737   1.530       .  S
C271        C276   1.557       .  S
C271        C278   1.539       .  S
C273        C729   1.530       .  S
C273        C276   1.390       .  D
C273        C308   1.504       .  S
C274        C277   1.389       .  D
C274        C325   1.494       .  S
C275        C738   1.363   1_455  D
C275        C448   1.497       .  S
C276        C336   1.501       .  S
C277        C731   1.530   1_455  S
C277        C294   1.509       .  S
C278        C735   1.363       .  D
C278        C437   1.504       .  S
O279       Ni287   1.888   1_565  S
O279        C749   1.272   1_455  A
O280        C750   1.274   1_455  A
O281       Ni287   1.913       .  S
O281        C751   1.285   1_455  A
O282        C752   1.284   1_455  A
O283        C292   1.273       .  A
O284       Ni288   1.897       .  S
O284        C291   1.274       .  A
O285        C290   1.285       .  A
O286       Ni288   1.926   1_565  S
O286        C289   1.288       .  A
Ni287      Ni748   2.384   1_455  S
Ni288      Ni747   2.384       .  S
C289        O739   1.272       .  A
C289        C757   1.481       .  S
C290        O740   1.274       .  A
C290        C827   1.477       .  S
C291        O741   1.285       .  A
C291        C353   1.478       .  S
C292        O742   1.284       .  A
C292        C311   1.478       .  S
C293        C294   1.405       .  A
C293        C298   1.406       .  A
C293        H300   1.083       .  S
C294        C755   1.424   1_455  A
C295        C754   1.424       .  A
C295        C296   1.393       .  A
C295        N302   1.426       .  S
C296        C757   1.391       .  A
C296        H301   1.084       .  S
C297        C749   1.481   1_455  S
C297        C756   1.391   1_455  A
C297        C298   1.420       .  A
C298        N299   1.438       .  S
N299        H303   1.046       .  S
N299        H304   1.046       .  S
N302        H305   1.046       .  S
N302        H306   1.044       .  S
C307        C308   1.405       .  A
C307        C312   1.398       .  A
C307        H314   1.083       .  S
C308        C769   1.422       .  A
C309        C768   1.422   1_455  A
C309        C310   1.392       .  A
C309        N316   1.428       .  S
C310        C771   1.394   1_455  A
C310        H315   1.084       .  S
C311        C770   1.394       .  A
C311        C312   1.420       .  A
C312        N313   1.432       .  S
N313        H317   1.045       .  S
N313        H318   1.045       .  S
N316        H319   1.045       .  S
N316        H320   1.044       .  S
C321        C322   1.404       .  A
C321        C326   1.412       .  A
C321        H328   1.084       .  S
C322        C323   1.409       .  A
C323        C324   1.406       .  A
C323        N330   1.434       .  S
C324        C325   1.405       .  A
C324        H329   1.082       .  S
C325        C326   1.411       .  A
C326        N327   1.437       .  S
N327        H331   1.046       .  S
N327        H332   1.045       .  S
N330        H333   1.046       .  S
N330        H334   1.046       .  S
C335        C336   1.409       .  A
C335        C340   1.406       .  A
C335        H342   1.081       .  S
C336        C337   1.419       .  A
C337        C338   1.406       .  A
C337        N344   1.435       .  S
C338        C339   1.402       .  A
C338        H343   1.084       .  S
C339        C340   1.409       .  A
C340        N341   1.437       .  S
N341        H345   1.045       .  S
N341        H346   1.046       .  S
N344        H347   1.041       .  S
N344        H348   1.047       .  S
C349        C350   1.406       .  A
C349        C354   1.408       .  A
C349        H356   1.083       .  S
C350        C811   1.422       .  A
C351        C810   1.422   1_455  A
C351        C352   1.388       .  A
C351        N358   1.427       .  S
C352        C813   1.391   1_455  A
C352        H357   1.084       .  S
C353        C812   1.391       .  A
C353        C354   1.418       .  A
C354        N355   1.438       .  S
N355        H359   1.046       .  S
N355        H360   1.045       .  S
N358        H361   1.046       .  S
N358        H362   1.045       .  S
C363        C824   1.411       .  A
C363        C368   1.396       .  A
C363        H370   1.073       .  S
C364        C823   1.411   1_455  A
C364        C365   1.412       .  A
C365        C366   1.399       .  A
C365        N372   1.437       .  S
C366        C367   1.411   1_455  A
C366        H371   1.084       .  S
C367        C750   1.477       .  S
C367        C828   1.404       .  A
C368        C827   1.404       .  A
C368        N369   1.439       .  S
N369        H373   1.046       .  S
N369        H374   1.045       .  S
N372        H375   1.043       .  S
N372        H376   1.045       .  S
C377        C378   1.406       .  A
C377        C382   1.401       .  A
C377        H384   1.074       .  S
C378        C379   1.413       .  A
C379        C380   1.409       .  A
C379        N386   1.432       .  S
C380        C381   1.403       .  A
C380        H385   1.083       .  S
C381        C382   1.407       .  A
C382        N383   1.438       .  S
N383        H387   1.046       .  S
N383        H388   1.045       .  S
N386        H389   1.046       .  S
N386        H390   1.046       .  S
C391        C392   1.408       .  A
C391        C396   1.416       .  A
C391        H398   1.083       .  S
C392        C393   1.418       .  A
C393        C394   1.396       .  A
C393        N400   1.428       .  S
C394        C395   1.390       .  A
C394        H399   1.079       .  S
C395        C396   1.410       .  A
C396        N397   1.436       .  S
N397        H401   1.046       .  S
N397        H402   1.045       .  S
N400        H403   1.045       .  S
N400        H404   1.045       .  S
C405        C406   1.399       .  A
C405        C410   1.411       .  A
C405        H412   1.084       .  S
C406        C867   1.416   1_455  A
C407        C866   1.416       .  A
C407        C408   1.410       .  A
C407        N414   1.432       .  S
C408        C869   1.406       .  A
C408        H413   1.083       .  S
C409        C868   1.406   1_455  A
C409        C410   1.426       .  A
C410        N411   1.438       .  S
N411        H415   1.046       .  S
N411        H416   1.046       .  S
N414        H417   1.046       .  S
N414        H418   1.045       .  S
C419        C420   1.403       .  A
C419        C424   1.402       .  A
C419        H426   1.084       .  S
C420        C881   1.423       .  A
C421        C880   1.423   1_455  A
C421        C422   1.412       .  A
C421        N428   1.437       .  S
C422        C883   1.406   1_455  A
C422        H427   1.083       .  S
C423        C882   1.406       .  A
C423        C424   1.425       .  A
C424        N425   1.433       .  S
N425        H429   1.045       .  S
N425        H430   1.045       .  S
N428        H431   1.045       .  S
N428        H432   1.046       .  S
C433        C434   1.412       .  A
C433        C438   1.402       .  A
C433        H440   1.083       .  S
C434        C895   1.416       .  A
C435        C894   1.416   1_455  A
C435        C436   1.414       .  A
C435        N442   1.437       .  S
C436        C897   1.412   1_455  A
C436        H441   1.083       .  S
C437        C896   1.412       .  A
C437        C438   1.413       .  A
C438        N439   1.436       .  S
N439        H443   1.045       .  S
N439        H444   1.042       .  S
N442        H445   1.046       .  S
N442        H446   1.045       .  S
C447        C908   1.411       .  A
C447        C452   1.412       .  A
C447        H454   1.082       .  S
C448        C907   1.411   1_455  A
C448        C449   1.412       .  A
C449        C450   1.404       .  A
C449        N456   1.439       .  S
C450        C451   1.413       .  A
C450        H455   1.083       .  S
C451        C912   1.414   1_455  A
C452        C911   1.414       .  A
C452        N453   1.437       .  S
N453        H457   1.046       .  S
N453        H458   1.046       .  S
N456        H459   1.044       .  S
N456        H460   1.045       .  S
O461       Ni469   1.947       .  S
O462       Ni699   1.948   1_554  S
O463       Ni699   1.905   1_554  S
O463        C473   1.279   1_655  A
O464       Ni469   1.907       .  S
O464        C474   1.276       .  A
O465       Ni700   1.946       .  S
O466       Ni470   1.947   1_554  S
O467       Ni470   1.907   1_554  S
O467        C472   1.277       .  A
O468       Ni700   1.905       .  S
O468        C471   1.278       .  A
Ni469       O692   1.948       .  S
Ni469       O693   1.905       .  S
Ni470       O695   1.946       .  S
Ni470       O698   1.905       .  S
C471        C681   1.501       .  S
C472        C639   1.505       .  S
C473        C664   1.504   1_455  S
C474        C653   1.504       .  S
C475        H476   1.103       .  S
C475        C481   1.537       .  S
C475        C480   1.559       .  S
C477        H478   1.106       .  S
C477        C482   1.558       .  S
C477        C484   1.536       .  S
C479        C482   1.393       .  D
C479        C580   1.503       .  S
C480        C483   1.382       .  D
C480        C622   1.501       .  S
C481        C636   1.501       .  S
C482        C608   1.505       .  S
C483        C594   1.494       .  S
C484        C650   1.509       .  S
O485       Ni493   1.939   1_545  S
O485        C495   1.286       .  A
O486       Ni493   1.939       .  S
O486        C496   1.286       .  A
O487       Ni493   1.906       .  S
O487        C497   1.276       .  A
O488       Ni493   1.899   1_545  S
O488        C498   1.276       .  A
O489       Ni494   1.940       .  S
O489        C498   1.286       .  A
O490       Ni494   1.947   1_565  S
O490        C497   1.288       .  A
O491       Ni494   1.910   1_565  S
O491        C496   1.277       .  A
O492       Ni494   1.903       .  S
O492        C495   1.276       .  A
Ni493      Ni494   2.390   1_565  S
C495        C625   1.472       .  S
C496        C569   1.477       .  S
C497        C552   1.479       .  S
C498        C611   1.475       .  S
C499        H500   1.103       .  S
C499        C505   1.531       .  S
C499        C504   1.552       .  S
C501        H502   1.102       .  S
C501        C506   1.557       .  S
C501        C508   1.539       .  S
C503        C506   1.390       .  D
C503        C538   1.504       .  S
C504        C507   1.389       .  D
C504        C555   1.494       .  S
C505        C678   1.497       .  S
C506        C566   1.501       .  S
C507        C524   1.509       .  S
C508        C667   1.504       .  S
O509       Ni517   1.888   1_564  S
O510       Ni747   1.886       .  S
O511       Ni517   1.913   1_554  S
O512       Ni747   1.912   1_565  S
O513       Ni748   1.894   1_565  S
O513        C522   1.273       .  A
O514       Ni518   1.897   1_554  S
O514        C521   1.274       .  A
O515       Ni748   1.926       .  S
O515        C520   1.285       .  A
O516       Ni518   1.926   1_564  S
O516        C519   1.288       .  A
Ni517       O740   1.886       .  S
Ni517       O742   1.912   1_545  S
Ni518       O743   1.894   1_545  S
Ni518       O745   1.926       .  S
C521        C583   1.478       .  S
C522        C541   1.478       .  S
C523        C524   1.405       .  A
C523        C528   1.406       .  A
C523        H530   1.083       .  S
C525        C526   1.393       .  A
C525        N532   1.426       .  S
C526        H531   1.084       .  S
C527        C528   1.420       .  A
C528        N529   1.438       .  S
N529        H533   1.046       .  S
N529        H534   1.046       .  S
N532        H535   1.046       .  S
N532        H536   1.044       .  S
C537        C538   1.405       .  A
C537        C542   1.398       .  A
C537        H544   1.083       .  S
C539        C540   1.392       .  A
C539        N546   1.428       .  S
C540        H545   1.084       .  S
C541        C542   1.420       .  A
C542        N543   1.432       .  S
N543        H547   1.045       .  S
N543        H548   1.045       .  S
N546        H549   1.045       .  S
N546        H550   1.044       .  S
C551        C552   1.404       .  A
C551        C556   1.412       .  A
C551        H558   1.084       .  S
C552        C553   1.409       .  A
C553        C554   1.406       .  A
C553        N560   1.434       .  S
C554        C555   1.405       .  A
C554        H559   1.082       .  S
C555        C556   1.411       .  A
C556        N557   1.437       .  S
N557        H561   1.046       .  S
N557        H562   1.045       .  S
N560        H563   1.046       .  S
N560        H564   1.046       .  S
C565        C566   1.409       .  A
C565        C570   1.406       .  A
C565        H572   1.081       .  S
C566        C567   1.419       .  A
C567        C568   1.406       .  A
C567        N574   1.435       .  S
C568        C569   1.402       .  A
C568        H573   1.084       .  S
C569        C570   1.409       .  A
C570        N571   1.437       .  S
N571        H575   1.045       .  S
N571        H576   1.046       .  S
N574        H577   1.041       .  S
N574        H578   1.047       .  S
C579        C580   1.406       .  A
C579        C584   1.408       .  A
C579        H586   1.083       .  S
C581        C582   1.388       .  A
C581        N588   1.427       .  S
C582        H587   1.084       .  S
C583        C584   1.418       .  A
C584        N585   1.438       .  S
N585        H589   1.046       .  S
N585        H590   1.045       .  S
N588        H591   1.046       .  S
N588        H592   1.045       .  S
C593        C598   1.396       .  A
C593        H600   1.073       .  S
C594        C595   1.412       .  A
C595        C596   1.399       .  A
C595        N602   1.437       .  S
C596        C597   1.411       .  A
C596        H601   1.084       .  S
C598        N599   1.438       .  S
N599        H603   1.046       .  S
N599        H604   1.045       .  S
N602        H605   1.043       .  S
N602        H606   1.045       .  S
C607        C608   1.406       .  A
C607        C612   1.401       .  A
C607        H614   1.074       .  S
C608        C609   1.413       .  A
C609        C610   1.409       .  A
C609        N616   1.432       .  S
C610        C611   1.403       .  A
C610        H615   1.083       .  S
C611        C612   1.407       .  A
C612        N613   1.438       .  S
N613        H617   1.046       .  S
N613        H618   1.045       .  S
N616        H619   1.046       .  S
N616        H620   1.046       .  S
C621        C622   1.408       .  A
C621        C626   1.416       .  A
C621        H628   1.083       .  S
C622        C623   1.418       .  A
C623        C624   1.396       .  A
C623        N630   1.428       .  S
C624        C625   1.390       .  A
C624        H629   1.079       .  S
C625        C626   1.410       .  A
C626        N627   1.436       .  S
N627        H631   1.046       .  S
N627        H632   1.045       .  S
N630        H633   1.045       .  S
N630        H634   1.045       .  S
C635        C636   1.399       .  A
C635        C640   1.410       .  A
C635        H642   1.084       .  S
C637        C638   1.410       .  A
C637        N644   1.432       .  S
C638        H643   1.083       .  S
C639        C640   1.426       .  A
C640        N641   1.438       .  S
N641        H645   1.046       .  S
N641        H646   1.046       .  S
N644        H647   1.046       .  S
N644        H648   1.045       .  S
C649        C650   1.403       .  A
C649        C654   1.402       .  A
C649        H656   1.084       .  S
C651        C652   1.412       .  A
C651        N658   1.437       .  S
C652        H657   1.083       .  S
C653        C654   1.425       .  A
C654        N655   1.433       .  S
N655        H659   1.045       .  S
N655        H660   1.045       .  S
N658        H661   1.045       .  S
N658        H662   1.046       .  S
C663        C664   1.412       .  A
C663        C668   1.402       .  A
C663        H670   1.083       .  S
C665        C666   1.414       .  A
C665        N672   1.437       .  S
C666        H671   1.083       .  S
C667        C668   1.413       .  A
C668        N669   1.436       .  S
N669        H673   1.045       .  S
N669        H674   1.042       .  S
N672        H675   1.046       .  S
N672        H676   1.045       .  S
C677        C682   1.412       .  A
C677        H684   1.082       .  S
C678        C679   1.412       .  A
C679        C680   1.404       .  A
C679        N686   1.439       .  S
C680        C681   1.413       .  A
C680        H685   1.083       .  S
C682        N683   1.437       .  S
N683        H687   1.046       .  S
N683        H688   1.046       .  S
N686        H689   1.044       .  S
N686        H690   1.045       .  S
O691       Ni699   1.947       .  S
O693        C703   1.279   1_655  A
O694       Ni699   1.907       .  S
O694        C704   1.276       .  A
O696       Ni700   1.947       .  S
O697       Ni700   1.907       .  S
O697        C702   1.277       .  A
O698        C701   1.278       .  A
C701        C911   1.501       .  S
C702        C869   1.505       .  S
C703        C894   1.504   1_455  S
C704        C883   1.504       .  S
C705        H706   1.103       .  S
C705        C711   1.537       .  S
C705        C710   1.559       .  S
C707        H708   1.106       .  S
C707        C712   1.558       .  S
C707        C714   1.536       .  S
C709        C712   1.393       .  D
C709        C810   1.503       .  S
C710        C713   1.382       .  D
C710        C852   1.501       .  S
C711        C866   1.501       .  S
C712        C838   1.504       .  S
C713        C824   1.494       .  S
C714        C880   1.509       .  S
O715       Ni723   1.939   1_545  S
O715        C725   1.286       .  A
O716       Ni723   1.939       .  S
O716        C726   1.286       .  A
O717       Ni723   1.906       .  S
O717        C727   1.276       .  A
O718       Ni723   1.899   1_545  S
O718        C728   1.276       .  A
O719       Ni724   1.940       .  S
O719        C728   1.286       .  A
O720       Ni724   1.947   1_565  S
O720        C727   1.288       .  A
O721       Ni724   1.910   1_565  S
O721        C726   1.277       .  A
O722       Ni724   1.903       .  S
O722        C725   1.276       .  A
Ni723      Ni724   2.390   1_565  S
C725        C855   1.472       .  S
C726        C799   1.477       .  S
C727        C782   1.479       .  S
C728        C841   1.475       .  S
C729        H730   1.103       .  S
C729        C735   1.531       .  S
C729        C734   1.552       .  S
C731        H732   1.102       .  S
C731        C736   1.557       .  S
C731        C738   1.539       .  S
C733        C736   1.390       .  D
C733        C768   1.504       .  S
C734        C737   1.389       .  D
C734        C785   1.494       .  S
C735        C908   1.497       .  S
C736        C796   1.501       .  S
C737        C754   1.509       .  S
C738        C897   1.504       .  S
O739       Ni747   1.888   1_565  S
O741       Ni747   1.913       .  S
O743        C752   1.273       .  A
O744       Ni748   1.897       .  S
O744        C751   1.274       .  A
O745        C750   1.285       .  A
O746       Ni748   1.926   1_565  S
O746        C749   1.288       .  A
C751        C813   1.478       .  S
C752        C771   1.478       .  S
C753        C754   1.405       .  A
C753        C758   1.406       .  A
C753        H760   1.083       .  S
C755        C756   1.393       .  A
C755        N762   1.426       .  S
C756        H761   1.084       .  S
C757        C758   1.420       .  A
C758        N759   1.438       .  S
N759        H763   1.046       .  S
N759        H764   1.046       .  S
N762        H765   1.046       .  S
N762        H766   1.044       .  S
C767        C768   1.405       .  A
C767        C772   1.398       .  A
C767        H774   1.083       .  S
C769        C770   1.392       .  A
C769        N776   1.428       .  S
C770        H775   1.084       .  S
C771        C772   1.420       .  A
C772        N773   1.432       .  S
N773        H777   1.045       .  S
N773        H778   1.045       .  S
N776        H779   1.045       .  S
N776        H780   1.044       .  S
C781        C782   1.404       .  A
C781        C786   1.412       .  A
C781        H788   1.084       .  S
C782        C783   1.409       .  A
C783        C784   1.406       .  A
C783        N790   1.434       .  S
C784        C785   1.405       .  A
C784        H789   1.082       .  S
C785        C786   1.411       .  A
C786        N787   1.437       .  S
N787        H791   1.046       .  S
N787        H792   1.045       .  S
N790        H793   1.046       .  S
N790        H794   1.046       .  S
C795        C796   1.409       .  A
C795        C800   1.406       .  A
C795        H802   1.081       .  S
C796        C797   1.419       .  A
C797        C798   1.406       .  A
C797        N804   1.435       .  S
C798        C799   1.402       .  A
C798        H803   1.084       .  S
C799        C800   1.409       .  A
C800        N801   1.437       .  S
N801        H805   1.045       .  S
N801        H806   1.046       .  S
N804        H807   1.041       .  S
N804        H808   1.047       .  S
C809        C810   1.406       .  A
C809        C814   1.408       .  A
C809        H816   1.083       .  S
C811        C812   1.388       .  A
C811        N818   1.427       .  S
C812        H817   1.084       .  S
C813        C814   1.418       .  A
C814        N815   1.438       .  S
N815        H819   1.046       .  S
N815        H820   1.045       .  S
N818        H821   1.046       .  S
N818        H822   1.045       .  S
C823        C828   1.396       .  A
C823        H830   1.073       .  S
C824        C825   1.412       .  A
C825        C826   1.399       .  A
C825        N832   1.437       .  S
C826        C827   1.411       .  A
C826        H831   1.084       .  S
C828        N829   1.439       .  S
N829        H833   1.046       .  S
N829        H834   1.045       .  S
N832        H835   1.043       .  S
N832        H836   1.045       .  S
C837        C838   1.406       .  A
C837        C842   1.401       .  A
C837        H844   1.074       .  S
C838        C839   1.413       .  A
C839        C840   1.409       .  A
C839        N846   1.432       .  S
C840        C841   1.403       .  A
C840        H845   1.083       .  S
C841        C842   1.407       .  A
C842        N843   1.438       .  S
N843        H847   1.046       .  S
N843        H848   1.045       .  S
N846        H849   1.046       .  S
N846        H850   1.046       .  S
C851        C852   1.408       .  A
C851        C856   1.416       .  A
C851        H858   1.083       .  S
C852        C853   1.418       .  A
C853        C854   1.396       .  A
C853        N860   1.428       .  S
C854        C855   1.390       .  A
C854        H859   1.079       .  S
C855        C856   1.410       .  A
C856        N857   1.436       .  S
N857        H861   1.046       .  S
N857        H862   1.045       .  S
N860        H863   1.045       .  S
N860        H864   1.045       .  S
C865        C866   1.399       .  A
C865        C870   1.411       .  A
C865        H872   1.084       .  S
C867        C868   1.410       .  A
C867        N874   1.432       .  S
C868        H873   1.083       .  S
C869        C870   1.426       .  A
C870        N871   1.438       .  S
N871        H875   1.046       .  S
N871        H876   1.046       .  S
N874        H877   1.046       .  S
N874        H878   1.045       .  S
C879        C880   1.403       .  A
C879        C884   1.402       .  A
C879        H886   1.084       .  S
C881        C882   1.412       .  A
C881        N888   1.437       .  S
C882        H887   1.083       .  S
C883        C884   1.425       .  A
C884        N885   1.433       .  S
N885        H889   1.045       .  S
N885        H890   1.045       .  S
N888        H891   1.045       .  S
N888        H892   1.046       .  S
C893        C894   1.412       .  A
C893        C898   1.402       .  A
C893        H900   1.083       .  S
C895        C896   1.414       .  A
C895        N902   1.437       .  S
C896        H901   1.083       .  S
C897        C898   1.413       .  A
C898        N899   1.436       .  S
N899        H903   1.045       .  S
N899        H904   1.042       .  S
N902        H905   1.046       .  S
N902        H906   1.045       .  S
C907        C912   1.412       .  A
C907        H914   1.082       .  S
C908        C909   1.412       .  A
C909        C910   1.404       .  A
C909        N916   1.439       .  S
C910        C911   1.413       .  A
C910        H915   1.083       .  S
C912        N913   1.437       .  S
N913        H917   1.046       .  S
N913        H918   1.046       .  S
N916        H919   1.044       .  S
N916        H920   1.045       .  S
