geometry optimzed in LAMMPS
_audit_creation_date              2020-11-30 
_audit_creation_method            'lammps2cif' 
_symmetry_space_group_name_H-M    'P1' 
_symmetry_Int_Tables_number       1 
_symmetry_cell_setting            triclinic 
loop_ 
_symmetry_equiv_pos_as_xyz 
  x,y,z 
_cell_length_a                    27.597159082861086 
_cell_length_b                    27.699468571553254 
_cell_length_c                    27.687197053925118 
_cell_angle_alpha                 83.62701356615042 
_cell_angle_beta                  83.80529993216042 
_cell_angle_gamma                 96.02563392152237 
loop_ 
_atom_site_label 
_atom_site_type_symbol 
_atom_site_fract_x 
_atom_site_fract_y 
_atom_site_fract_z 
_atom_site_charge 
C1          C  0.09697274  0.29608594  0.51699576     0.02730
C2          C  0.14783086  0.29530252  0.01043857    -0.13420
C3          C  0.16717961  0.25149820  0.00377147     0.00230
C4          C  0.13659862  0.21081805  0.99599464    -0.11950
C5          C  0.08666945  0.20788428  0.51081278     0.02720
C6          C  0.06584932  0.25119142  0.51997465    -0.11370
H7          H  0.17182683  0.32705779  0.01655431     0.08320
H8          H  0.15272395  0.17750424  0.98997349     0.05850
H9          H  0.02685691  0.24967364  0.53126673     0.05690
C10         C  0.40345982  0.17486385  0.11143834     0.02730
C11         C  0.43183645  0.22035574  0.11433463    -0.13420
C12         C  0.40830407  0.26364921  0.11527844     0.00230
C13         C  0.35762921  0.25986725  0.11595178    -0.11950
C14         C  0.33220336  0.21773256  0.10444622     0.02720
C15         C  0.35400861  0.17465047  0.10481696    -0.11370
H16         H  0.47138504  0.22241560  0.11270851     0.08320
H17         H  0.33900256  0.29249546  0.11646190     0.05850
H18         H  0.33394993  0.14213078  0.09484444     0.05690
C19         C  0.18814137  0.43845310  0.16272467     0.02730
C20         C  0.18776544  0.44213201  0.21269663    -0.13420
C21         C  0.23112874  0.44120155  0.23413002     0.00230
C22         C  0.27340579  0.43066644  0.20769464    -0.11950
C23         C  0.27717911  0.43449480  0.15697265     0.02720
C24         C  0.23382995  0.43707169  0.13382102    -0.11370
H25         H  0.15506122  0.45114026  0.23356258     0.08320
H26         H  0.30630364  0.42922506  0.22585805     0.05850
H27         H  0.23597825  0.44103888  0.09426702     0.05690
C28         C  0.31054277  0.03511181  0.46755045     0.02730
C29         C  0.30969065  0.03820260  0.41692384    -0.13420
C30         C  0.26567161  0.04312176  0.39729643     0.00230
C31         C  0.22456222  0.05194964  0.42689646    -0.11950
C32         C  0.22197674  0.04095797  0.47728798     0.02720
C33         C  0.26562743  0.03386369  0.99845891    -0.11370
H34         H  0.34164555  0.03091477  0.39367341     0.08320
H35         H  0.19101237  0.05632187  0.41045369     0.05850
H36         H  0.26429693  0.02493566  0.03770620     0.05690
C37         C  0.04827745  0.08194878  0.25518302     0.02730
C38         C  0.04877334  0.13231929  0.25555186    -0.13420
C39         C  0.05099443  0.15215750  0.29934113     0.00230
C40         C  0.06012528  0.12403803  0.34103592    -0.11950
C41         C  0.05315684  0.07341461  0.34387488     0.02720
C42         C  0.04815362  0.05154844  0.30031075    -0.11370
H43         H  0.04131550  0.15504929  0.22331337     0.08320
H44         H  0.06236648  0.14124789  0.37427324     0.05850
H45         H  0.04146543  0.01214098  0.30186925     0.05690
C46         C  0.45367084  0.39154883  0.37698802     0.02730
C47         C  0.45993975  0.34216494  0.37764657    -0.13420
C48         C  0.46049744  0.32078066  0.33464650     0.00230
C49         C  0.44880569  0.34575584  0.29234571    -0.11950
C50         C  0.44954669  0.39622643  0.28818986     0.02720
C51         C  0.45085881  0.41985849  0.33125822    -0.11370
H52         H  0.46941963  0.32173896  0.41037978     0.08320
H53         H  0.44846133  0.32700109  0.25991507     0.05850
H54         H  0.45282805  0.45932115  0.32884627     0.05690
O55         O  0.08260521  0.37858184  0.99471684    -0.80530
O56         O  0.43926594  0.46001034  0.22586875    -0.82080
O57         O  0.10736223  0.41347747  0.14449502    -0.79100
O58         O  0.47235237  0.32573808  0.12576518    -0.77490
O59         O  0.41310217  0.34528762  0.07759543    -0.79280
O60         O  0.14054166  0.49362233  0.12509037    -0.80150
O61         O  0.48674247  0.40028827  0.20649342    -0.81540
O62         O  0.06057839  0.34331870  0.07395556    -0.81830
Eu63       Eu  0.02313138  0.40457371  0.11913882     2.39200
O64         O  0.44409085  0.43071331  0.12108752    -0.89340
O65         O  0.07846023  0.46125740  0.06500144    -0.92940
C66         C  0.07851628  0.34208440  0.02916797     1.01750
C67         C  0.45919582  0.42111989  0.23726254     1.01570
C68         C  0.14290642  0.44865376  0.14153193     1.01510
C69         C  0.43358346  0.31446109  0.10553744     0.99370
H70         H  0.03679044  0.47971579  0.17540726     0.29120
O71         O  0.02496419  0.48285716  0.14382910    -1.01720
H72         H  0.49418026  0.37590059  0.02846086     0.29150
O73         O  0.49703038  0.40742559  0.04024518    -1.04260
O74         O  0.42178008  0.09427723  0.13751984    -0.81490
O75         O  0.06248271  0.01008970  0.40666803    -0.81030
O76         O  0.07160952  0.06690811  0.17332982    -0.79470
O77         O  0.33955220  0.42599366  0.09263202    -0.82810
O78         O  0.42771063  0.40947073  0.45741705    -0.80660
O79         O  0.15902915  0.04825757  0.04087921    -0.79310
O80         O  0.02386654  0.14468074  0.00374813    -0.80830
O81         O  0.39260125  0.05771069  0.48304145    -0.82750
O82         O  0.08279766  0.12834897  0.05362548    -0.79490
O83         O  0.35766891  0.47839611  0.00431051    -0.82170
O84         O  0.49191573  0.04563136  0.20792649    -0.77900
O85         O  0.14242099  0.49848863  0.48243402    -0.77940
O86         O  0.50831142  0.42843632  0.42488635    -0.77580
O87         O  0.35842095  0.47334543  0.15233725    -0.81080
O88         O  0.44104912  0.12689567  0.05714144    -0.80500
O89         O  0.51218232  0.06815409  0.42404351    -0.78830
Eu90       Eu  0.44605620  0.00963521  0.14665180     2.39770
Eu91       Eu  0.05500673  0.46183950  0.48646670     2.39570
Eu92       Eu  0.07947355  0.04052686  0.08987172     2.38400
Eu93       Eu  0.41858367  0.43291415  0.04207627     2.39880
Eu94       Eu  0.47560762  0.06531917  0.01117267     2.39790
O95         O  0.47560715  0.48712306  0.98759441    -0.93250
O96         O  0.50078151  0.06441070  0.09029046    -0.92140
C97         C  0.42495708  0.12968369  0.10205779     1.01920
C98         C  0.04125318  0.04784145  0.39424613     1.00640
C99         C  0.03690417  0.06279468  0.20956533     1.00030
C100        C  0.32794845  0.44550271  0.13162632     1.02050
C101        C  0.46321398  0.41275601  0.42204857     1.00960
C102        C  0.17177447  0.02767914  0.00292788     0.99810
C103        C  0.06169431  0.15761402  0.02453143     0.99870
C104        C  0.35633759  0.02322431  0.48660723     1.02480
H105        H  0.07821848  0.06417009  0.48758249     0.29860
O106        O  0.05548756  0.04134564  0.01034257    -1.05410
H107        H  0.38896962  0.02328741  0.07128875     0.31910
O108        O  0.42069424  0.01150868  0.06851333    -1.07970
C109        C  0.48585927  0.27826623  0.32903084    -0.06520
C110        C  0.46093400  0.23258446  0.34701525    -0.17650
C111        C  0.98059649  0.19078499  0.33552481     0.10670
C112        C  0.02713623  0.19526387  0.30703265    -0.06450
C113        C  0.05256894  0.24103360  0.28975267    -0.17680
C114        C  0.03217961  0.28303589  0.30029170     0.10710
S115        S  0.94391655  0.13311156  0.35768924    -0.32650
S116        S  0.06528771  0.34238778  0.27692005    -0.32650
H117        H  0.60501017  0.32554044  0.25009621     0.28720
H118        H  0.95753516  0.10988986  0.31655340     0.28710
H119        H  0.42505856  0.22960780  0.36813417     0.19300
H120        H  0.08833935  0.24359234  0.26861979     0.19310
C121        C  0.23788547  0.46700503  0.27648263    -0.06520
C122        C  0.27285961  0.50894714  0.26932979    -0.17650
C123        C  0.28251942  0.03546002  0.30761868     0.10670
C124        C  0.25616379  0.02000954  0.35384331    -0.06450
C125        C  0.22061480  0.47852882  0.36072556    -0.17680
C126        C  0.21115583  0.45190199  0.32256311     0.10710
S127        S  0.32855246  0.08802078  0.29512349    -0.32650
S128        S  0.16592432  0.39873717  0.33557398    -0.32650
H129        H  0.18669109  0.37214171  0.29989737     0.28720
H130        H  0.30946653  0.11357076  0.33254840     0.28710
H131        H  0.29283421  0.52117657  0.23339502     0.19300
H132        H  0.20093892  0.46585389  0.39669816     0.19310
C133        C  0.28981627  0.22378399  0.07816910    -0.06520
C134        C  0.29614560  0.25948436  0.03675025    -0.17650
C135        C  0.25742229  0.26866762  0.01026819     0.10670
C136        C  0.21160604  0.24125806  0.02536814    -0.06450
C137        C  0.20582139  0.20460721  0.06600201    -0.17680
C138        C  0.24439184  0.19549766  0.09245278     0.10710
S139        S  0.26873627  0.31556933  0.95830242    -0.32650
S140        S  0.23262357  0.14882989  0.14465094    -0.32650
H141        H  0.26609053  0.17098173  0.17272780     0.28720
H142        H  0.23130035  0.29640041  0.93274204     0.28710
H143        H  0.33169910  0.28048146  0.02501209     0.19300
H144        H  0.17024442  0.18401043  0.07855224     0.19310
C145        C  0.09697271  0.29608593  0.01699576     0.02730
C146        C  0.14783088  0.29530253  0.51043856    -0.13420
C147        C  0.16717963  0.25149820  0.50377145     0.00230
C148        C  0.13659863  0.21081806  0.49599462    -0.11950
C149        C  0.08666943  0.20788428  0.01081279     0.02720
C150        C  0.06584930  0.25119142  0.01997464    -0.11370
H151        H  0.17182685  0.32705779  0.51655429     0.08320
H152        H  0.15272397  0.17750425  0.48997346     0.05850
H153        H  0.02685689  0.24967363  0.03126672     0.05690
C154        C  0.40345985  0.17486386  0.61143834     0.02730
C155        C  0.43183647  0.22035574  0.61433463    -0.13420
C156        C  0.40830409  0.26364921  0.61527843     0.00230
C157        C  0.35762923  0.25986725  0.61595176    -0.11950
C158        C  0.33220339  0.21773256  0.60444619     0.02720
C159        C  0.35400864  0.17465047  0.60481694    -0.11370
H160        H  0.47138506  0.22241560  0.61270852     0.08320
H161        H  0.33900258  0.29249547  0.61646187     0.05850
H162        H  0.33394996  0.14213079  0.59484442     0.05690
C163        C  0.18814139  0.43845309  0.66272467     0.02730
C164        C  0.18776545  0.44213198  0.71269663    -0.13420
C165        C  0.23112875  0.44120152  0.73413002     0.00230
C166        C  0.27340580  0.43066642  0.70769464    -0.11950
C167        C  0.27717913  0.43449479  0.65697265     0.02720
C168        C  0.23382997  0.43707169  0.63382102    -0.11370
H169        H  0.15506124  0.45114023  0.73356258     0.08320
H170        H  0.30630366  0.42922504  0.72585804     0.05850
H171        H  0.23597827  0.44103889  0.59426701     0.05690
C172        C  0.31054275  0.03511181  0.96755045     0.02730
C173        C  0.30969063  0.03820260  0.91692384    -0.13420
C174        C  0.26567159  0.04312175  0.89729643     0.00230
C175        C  0.22456220  0.05194962  0.92689646    -0.11950
C176        C  0.22197671  0.04095796  0.97728798     0.02720
C177        C  0.26562745  0.03386370  0.49845892    -0.11370
H178        H  0.34164553  0.03091477  0.89367342     0.08320
H179        H  0.19101235  0.05632184  0.91045368     0.05850
H180        H  0.26429696  0.02493566  0.53770620     0.05690
C181        C  0.04827746  0.08194879  0.75518302     0.02730
C182        C  0.04877335  0.13231931  0.75555186    -0.13420
C183        C  0.05099443  0.15215751  0.79934114     0.00230
C184        C  0.06012527  0.12403803  0.84103593    -0.11950
C185        C  0.05315683  0.07341462  0.84387489     0.02720
C186        C  0.04815362  0.05154845  0.80031075    -0.11370
H187        H  0.04131552  0.15504930  0.72331337     0.08320
H188        H  0.06236646  0.14124789  0.87427325     0.05850
H189        H  0.04146543  0.01214099  0.80186925     0.05690
C190        C  0.45367083  0.39154882  0.87698802     0.02730
C191        C  0.45993975  0.34216494  0.87764657    -0.13420
C192        C  0.46049745  0.32078065  0.83464650     0.00230
C193        C  0.44880571  0.34575583  0.79234571    -0.11950
C194        C  0.44954671  0.39622642  0.78818985     0.02720
C195        C  0.45085881  0.41985848  0.83125822    -0.11370
H196        H  0.46941962  0.32173895  0.91037979     0.08320
H197        H  0.44846136  0.32700108  0.75991507     0.05850
H198        H  0.45282804  0.45932114  0.82884627     0.05690
O199        O  0.08260523  0.37858185  0.49471685    -0.80530
O200        O  0.43926596  0.46001033  0.72586874    -0.82080
O201        O  0.10736225  0.41347747  0.64449503    -0.79100
O202        O  0.47235239  0.32573808  0.62576517    -0.77490
O203        O  0.41310220  0.34528762  0.57759543    -0.79280
O204        O  0.14054168  0.49362233  0.62509037    -0.80150
O205        O  0.48674249  0.40028826  0.70649342    -0.81540
O206        O  0.06057841  0.34331870  0.57395556    -0.81830
Eu207      Eu  0.02313139  0.40457371  0.61913882     2.39200
O208        O  0.44409087  0.43071331  0.62108752    -0.89340
O209        O  0.07846024  0.46125741  0.56500144    -0.92940
C210        C  0.07851630  0.34208440  0.52916798     1.01750
C211        C  0.45919584  0.42111988  0.73726253     1.01570
C212        C  0.14290644  0.44865376  0.64153193     1.01510
C213        C  0.43358348  0.31446109  0.60553743     0.99370
H214        H  0.03679045  0.47971579  0.67540726     0.29120
O215        O  0.02496421  0.48285716  0.64382910    -1.01720
H216        H  0.49418028  0.37590059  0.52846085     0.29150
O217        O  0.49703040  0.40742560  0.54024518    -1.04260
O218        O  0.42178011  0.09427724  0.63751983    -0.81490
O219        O  0.06248269  0.01008970  0.90666803    -0.81030
O220        O  0.07160954  0.06690812  0.67332982    -0.79470
O221        O  0.33955222  0.42599366  0.59263202    -0.82810
O222        O  0.42771061  0.40947073  0.95741705    -0.80660
O223        O  0.15902917  0.04825758  0.54087922    -0.79310
O224        O  0.02386656  0.14468075  0.50374812    -0.80830
O225        O  0.39260123  0.05771069  0.98304146    -0.82750
O226        O  0.08279768  0.12834898  0.55362548    -0.79490
O227        O  0.35766893  0.47839611  0.50431051    -0.82170
O228        O  0.49191576  0.04563137  0.70792649    -0.77900
O229        O  0.14242097  0.49848863  0.98243402    -0.77940
O230        O  0.50831141  0.42843631  0.92488635    -0.77580
O231        O  0.35842097  0.47334543  0.65233725    -0.81080
O232        O  0.44104914  0.12689567  0.55714144    -0.80500
O233        O  0.51218230  0.06815409  0.92404351    -0.78830
Eu234      Eu  0.44605622  0.00963522  0.64665180     2.39770
Eu235      Eu  0.05500671  0.46183949  0.98646670     2.39570
Eu236      Eu  0.07947357  0.04052687  0.58987172     2.38400
Eu237      Eu  0.41858369  0.43291415  0.54207627     2.39880
Eu238      Eu  0.47560764  0.06531917  0.51117267     2.39790
O239        O  0.47560717  0.48712306  0.48759441    -0.93250
O240        O  0.50078154  0.06441071  0.59029046    -0.92140
C241        C  0.42495710  0.12968370  0.60205779     1.01920
C242        C  0.04125316  0.04784145  0.89424614     1.00640
C243        C  0.03690418  0.06279469  0.70956533     1.00030
C244        C  0.32794847  0.44550271  0.63162632     1.02050
C245        C  0.46321396  0.41275600  0.92204857     1.00960
C246        C  0.17177450  0.02767915  0.50292788     0.99810
C247        C  0.06169434  0.15761403  0.52453143     0.99870
C248        C  0.35633757  0.02322431  0.98660723     1.02480
H249        H  0.07821846  0.06417008  0.98758249     0.29860
O250        O  0.05548758  0.04134565  0.51034257    -1.05410
H251        H  0.38896964  0.02328741  0.57128875     0.31910
O252        O  0.42069426  0.01150868  0.56851333    -1.07970
C253        C  0.48585929  0.27826622  0.82903085    -0.06520
C254        C  0.46093401  0.23258445  0.84701522    -0.17650
C255        C  0.98059648  0.19078499  0.83552479     0.10670
C256        C  0.02713623  0.19526387  0.80703266    -0.06450
C257        C  0.05256894  0.24103361  0.78975269    -0.17680
C258        C  0.03217961  0.28303590  0.80029172     0.10710
S259        S  0.94391654  0.13311155  0.85768921    -0.32650
S260        S  0.06528771  0.34238778  0.77692009    -0.32650
H261        H  0.60501024  0.32554046  0.75009630     0.28720
H262        H  0.95753516  0.10988987  0.81655336     0.28710
H263        H  0.42505856  0.22960778  0.86813412     0.19300
H264        H  0.08833936  0.24359235  0.76861982     0.19310
C265        C  0.23788548  0.46700500  0.77648263    -0.06520
C266        C  0.27285961  0.50894712  0.76932979    -0.17650
C267        C  0.28251941  0.03546001  0.80761868     0.10670
C268        C  0.25616378  0.02000952  0.85384331    -0.06450
C269        C  0.22061480  0.47852879  0.86072556    -0.17680
C270        C  0.21115584  0.45190196  0.82256311     0.10710
S271        S  0.32855243  0.08802078  0.79512349    -0.32650
S272        S  0.16592436  0.39873713  0.83557399    -0.32650
H273        H  0.18669112  0.37214168  0.79989736     0.28720
H274        H  0.30946649  0.11357076  0.83254840     0.28710
H275        H  0.29283421  0.52117655  0.73339502     0.19300
H276        H  0.20093893  0.46585386  0.89669816     0.19310
C277        C  0.28981630  0.22378400  0.57816907    -0.06520
C278        C  0.29614562  0.25948437  0.53675023    -0.17650
C279        C  0.25742231  0.26866763  0.51026817     0.10670
C280        C  0.21160606  0.24125806  0.52536811    -0.06450
C281        C  0.20582142  0.20460720  0.56600197    -0.17680
C282        C  0.24439187  0.19549765  0.59245275     0.10710
S283        S  0.26873629  0.31556936  0.45830241    -0.32650
S284        S  0.23262360  0.14882987  0.64465089    -0.32650
H285        H  0.26609055  0.17098171  0.67272776     0.28720
H286        H  0.23130037  0.29640044  0.43274202     0.28710
H287        H  0.33169911  0.28048148  0.52501208     0.19300
H288        H  0.17024445  0.18401042  0.57855220     0.19310
C289        C  0.09697273  0.79608594  0.51699576     0.02730
C290        C  0.14783086  0.79530252  0.01043855    -0.13420
C291        C  0.16717960  0.75149820  0.00377144     0.00230
C292        C  0.13659861  0.71081805  0.99599461    -0.11950
C293        C  0.08666945  0.70788428  0.51081278     0.02720
C294        C  0.06584932  0.75119142  0.51997464    -0.11370
H295        H  0.17182683  0.82705779  0.01655428     0.08320
H296        H  0.15272395  0.67750425  0.98997346     0.05850
H297        H  0.02685691  0.74967364  0.53126672     0.05690
C298        C  0.40345982  0.67486385  0.11143834     0.02730
C299        C  0.43183644  0.72035574  0.11433463    -0.13420
C300        C  0.40830406  0.76364921  0.11527843     0.00230
C301        C  0.35762920  0.75986725  0.11595175    -0.11950
C302        C  0.33220336  0.71773256  0.10444619     0.02720
C303        C  0.35400861  0.67465047  0.10481694    -0.11370
H304        H  0.47138503  0.72241560  0.11270853     0.08320
H305        H  0.33900255  0.79249546  0.11646186     0.05850
H306        H  0.33394993  0.64213078  0.09484442     0.05690
C307        C  0.18814137  0.93845309  0.16272467     0.02730
C308        C  0.18776544  0.94213199  0.21269664    -0.13420
C309        C  0.23112874  0.94120153  0.23413003     0.00230
C310        C  0.27340579  0.93066643  0.20769464    -0.11950
C311        C  0.27717911  0.93449479  0.15697265     0.02720
C312        C  0.23382995  0.93707169  0.13382103    -0.11370
H313        H  0.15506122  0.95114025  0.23356259     0.08320
H314        H  0.30630364  0.92922505  0.22585805     0.05850
H315        H  0.23597824  0.94103888  0.09426702     0.05690
C316        C  0.31054277  0.53511181  0.46755045     0.02730
C317        C  0.30969065  0.53820261  0.41692383    -0.13420
C318        C  0.26567160  0.54312177  0.39729643     0.00230
C319        C  0.22456222  0.55194964  0.42689646    -0.11950
C320        C  0.22197674  0.54095797  0.47728798     0.02720
C321        C  0.26562743  0.53386369  0.99845891    -0.11370
H322        H  0.34164554  0.53091477  0.39367341     0.08320
H323        H  0.19101237  0.55632188  0.41045369     0.05850
H324        H  0.26429693  0.52493565  0.03770619     0.05690
C325        C  0.04827746  0.58194878  0.25518301     0.02730
C326        C  0.04877338  0.63231930  0.25555185    -0.13420
C327        C  0.05099448  0.65215750  0.29934113     0.00230
C328        C  0.06012532  0.62403802  0.34103592    -0.11950
C329        C  0.05315686  0.57341461  0.34387487     0.02720
C330        C  0.04815362  0.55154844  0.30031075    -0.11370
H331        H  0.04131555  0.65504930  0.22331336     0.08320
H332        H  0.06236653  0.64124788  0.37427324     0.05850
H333        H  0.04146541  0.51214098  0.30186925     0.05690
C334        C  0.45367084  0.89154883  0.37698802     0.02730
C335        C  0.45993975  0.84216495  0.37764657    -0.13420
C336        C  0.46049743  0.82078066  0.33464650     0.00230
C337        C  0.44880569  0.84575584  0.29234571    -0.11950
C338        C  0.44954669  0.89622643  0.28818986     0.02720
C339        C  0.45085881  0.91985850  0.33125822    -0.11370
H340        H  0.46941963  0.82173896  0.41037978     0.08320
H341        H  0.44846132  0.82700109  0.25991508     0.05850
H342        H  0.45282805  0.95932115  0.32884627     0.05690
O343        O  0.08260521  0.87858184  0.99471684    -0.80530
O344        O  0.43926595  0.96001034  0.22586875    -0.82080
O345        O  0.10736223  0.91347746  0.14449503    -0.79100
O346        O  0.47235236  0.82573808  0.12576517    -0.77490
O347        O  0.41310217  0.84528762  0.07759543    -0.79280
O348        O  0.14054166  0.99362233  0.12509038    -0.80150
O349        O  0.48674247  0.90028826  0.20649342    -0.81540
O350        O  0.06057839  0.84331869  0.07395556    -0.81830
Eu351      Eu  0.02313138  0.90457370  0.11913882     2.39200
O352        O  0.44409085  0.93071331  0.12108752    -0.89340
O353        O  0.07846023  0.96125740  0.06500144    -0.92940
C354        C  0.07851628  0.84208440  0.02916797     1.01750
C355        C  0.45919582  0.92111989  0.23726254     1.01570
C356        C  0.14290642  0.94865375  0.14153193     1.01510
C357        C  0.43358345  0.81446109  0.10553743     0.99370
H358        H  0.03679044  0.97971578  0.17540726     0.29120
O359        O  0.02496419  0.98285715  0.14382910    -1.01720
H360        H  0.49418025  0.87590059  0.02846086     0.29150
O361        O  0.49703037  0.90742559  0.04024518    -1.04260
O362        O  0.42178008  0.59427723  0.13751984    -0.81490
O363        O  0.06248271  0.51008970  0.40666803    -0.81030
O364        O  0.07160953  0.56690812  0.17332981    -0.79470
O365        O  0.33955220  0.92599366  0.09263202    -0.82810
O366        O  0.42771063  0.90947074  0.45741705    -0.80660
O367        O  0.15902915  0.54825757  0.04087921    -0.79310
O368        O  0.02386654  0.64468074  0.00374812    -0.80830
O369        O  0.39260125  0.55771069  0.48304145    -0.82750
O370        O  0.08279766  0.62834898  0.05362547    -0.79490
O371        O  0.35766890  0.97839612  0.00431051    -0.82170
O372        O  0.49191573  0.54563136  0.20792649    -0.77900
O373        O  0.14242099  0.99848863  0.48243402    -0.77940
O374        O  0.50831142  0.92843632  0.42488635    -0.77580
O375        O  0.35842095  0.97334542  0.15233725    -0.81080
O376        O  0.44104911  0.62689567  0.05714144    -0.80500
O377        O  0.51218232  0.56815409  0.42404351    -0.78830
Eu378      Eu  0.44605620  0.50963521  0.14665180     2.39770
Eu379      Eu  0.05500673  0.96183950  0.48646670     2.39570
Eu380      Eu  0.07947355  0.54052686  0.08987171     2.38400
Eu381      Eu  0.41858367  0.93291415  0.04207627     2.39880
Eu382      Eu  0.47560761  0.56531917  0.01117267     2.39790
O383        O  0.47560715  0.98712306  0.98759441    -0.93250
O384        O  0.50078151  0.56441070  0.09029047    -0.92140
C385        C  0.42495708  0.62968369  0.10205779     1.01920
C386        C  0.04125318  0.54784144  0.39424612     1.00640
C387        C  0.03690417  0.56279469  0.20956532     1.00030
C388        C  0.32794845  0.94550270  0.13162632     1.02050
C389        C  0.46321398  0.91275601  0.42204857     1.00960
C390        C  0.17177447  0.52767914  0.00292787     0.99810
C391        C  0.06169431  0.65761403  0.02453142     0.99870
C392        C  0.35633759  0.52322430  0.48660723     1.02480
H393        H  0.07821848  0.56417008  0.48758249     0.29860
O394        O  0.05548756  0.54134564  0.01034256    -1.05410
H395        H  0.38896962  0.52328740  0.07128875     0.31910
O396        O  0.42069423  0.51150868  0.06851334    -1.07970
C397        C  0.48585927  0.77826623  0.32903084    -0.06520
C398        C  0.46093400  0.73258446  0.34701524    -0.17650
C399        C  0.98059654  0.69078499  0.33552480     0.10670
C400        C  0.02713628  0.69526387  0.30703266    -0.06450
C401        C  0.05256900  0.74103360  0.28975268    -0.17680
C402        C  0.03217967  0.78303590  0.30029171     0.10710
S403        S  0.94391660  0.63311156  0.35768922    -0.32650
S404        S  0.06528777  0.84238778  0.27692006    -0.32650
H405        H  0.60501018  0.82554044  0.25009622     0.28720
H406        H  0.95753520  0.60988988  0.31655336     0.28710
H407        H  0.42505856  0.72960779  0.36813416     0.19300
H408        H  0.08833941  0.74359234  0.26861980     0.19310
C409        C  0.23788547  0.96700502  0.27648264    -0.06520
C410        C  0.27285960  0.00894713  0.26932980    -0.17650
C411        C  0.28251942  0.53546003  0.30761868     0.10670
C412        C  0.25616378  0.52000955  0.35384331    -0.06450
C413        C  0.22061481  0.97852880  0.36072557    -0.17680
C414        C  0.21115584  0.95190197  0.32256312     0.10710
S415        S  0.32855246  0.58802078  0.29512350    -0.32650
S416        S  0.16592435  0.89873714  0.33557400    -0.32650
H417        H  0.18669111  0.87214169  0.29989737     0.28720
H418        H  0.30946654  0.61357077  0.33254840     0.28710
H419        H  0.29283420  0.02117656  0.23339502     0.19300
H420        H  0.20093894  0.96585386  0.39669817     0.19310
C421        C  0.28981627  0.72378399  0.07816906    -0.06520
C422        C  0.29614560  0.75948435  0.03675022    -0.17650
C423        C  0.25742229  0.76866762  0.01026816     0.10670
C424        C  0.21160604  0.74125806  0.02536811    -0.06450
C425        C  0.20582139  0.70460721  0.06600197    -0.17680
C426        C  0.24439184  0.69549765  0.09245275     0.10710
S427        S  0.26873627  0.81556933  0.95830238    -0.32650
S428        S  0.23262357  0.64882988  0.14465091    -0.32650
H429        H  0.26609053  0.67098173  0.17272777     0.28720
H430        H  0.23130035  0.79640042  0.93274201     0.28710
H431        H  0.33169910  0.78048146  0.02501206     0.19300
H432        H  0.17024442  0.68401043  0.07855220     0.19310
C433        C  0.09697271  0.79608593  0.01699575     0.02730
C434        C  0.14783088  0.79530253  0.51043858    -0.13420
C435        C  0.16717963  0.75149820  0.50377147     0.00230
C436        C  0.13659864  0.71081806  0.49599463    -0.11950
C437        C  0.08666943  0.70788428  0.01081277     0.02720
C438        C  0.06584930  0.75119142  0.01997464    -0.11370
H439        H  0.17182685  0.82705779  0.51655431     0.08320
H440        H  0.15272397  0.67750425  0.48997348     0.05850
H441        H  0.02685689  0.74967363  0.03126672     0.05690
C442        C  0.40345984  0.67486386  0.61143835     0.02730
C443        C  0.43183647  0.72035574  0.61433463    -0.13420
C444        C  0.40830409  0.76364921  0.61527844     0.00230
C445        C  0.35762923  0.75986725  0.61595178    -0.11950
C446        C  0.33220338  0.71773256  0.60444622     0.02720
C447        C  0.35400863  0.67465047  0.60481696    -0.11370
H448        H  0.47138506  0.72241560  0.61270852     0.08320
H449        H  0.33900258  0.79249547  0.61646189     0.05850
H450        H  0.33394995  0.64213078  0.59484444     0.05690
C451        C  0.18814139  0.93845309  0.66272467     0.02730
C452        C  0.18776545  0.94213198  0.71269664    -0.13420
C453        C  0.23112875  0.94120151  0.73413002     0.00230
C454        C  0.27340581  0.93066642  0.70769464    -0.11950
C455        C  0.27717913  0.93449480  0.65697265     0.02720
C456        C  0.23382997  0.93707170  0.63382102    -0.11370
H457        H  0.15506124  0.95114022  0.73356259     0.08320
H458        H  0.30630366  0.92922504  0.72585804     0.05850
H459        H  0.23597827  0.94103890  0.59426702     0.05690
C460        C  0.31054275  0.53511180  0.96755045     0.02730
C461        C  0.30969063  0.53820260  0.91692383    -0.13420
C462        C  0.26567159  0.54312176  0.89729643     0.00230
C463        C  0.22456220  0.55194963  0.92689646    -0.11950
C464        C  0.22197672  0.54095797  0.97728797     0.02720
C465        C  0.26562745  0.53386369  0.49845891    -0.11370
H466        H  0.34164553  0.53091477  0.89367341     0.08320
H467        H  0.19101235  0.55632186  0.91045368     0.05850
H468        H  0.26429695  0.52493565  0.53770620     0.05690
C469        C  0.04827746  0.58194879  0.75518301     0.02730
C470        C  0.04877336  0.63231931  0.75555185    -0.13420
C471        C  0.05099443  0.65215751  0.79934113     0.00230
C472        C  0.06012527  0.62403803  0.84103593    -0.11950
C473        C  0.05315683  0.57341462  0.84387488     0.02720
C474        C  0.04815362  0.55154845  0.80031075    -0.11370
H475        H  0.04131552  0.65504930  0.72331336     0.08320
H476        H  0.06236646  0.64124789  0.87427325     0.05850
H477        H  0.04146543  0.51214099  0.80186925     0.05690
C478        C  0.45367082  0.89154882  0.87698802     0.02730
C479        C  0.45993972  0.84216493  0.87764657    -0.13420
C480        C  0.46049741  0.82078065  0.83464650     0.00230
C481        C  0.44880568  0.84575583  0.79234571    -0.11950
C482        C  0.44954670  0.89622643  0.78818985     0.02720
C483        C  0.45085880  0.91985849  0.83125822    -0.11370
H484        H  0.46941959  0.82173895  0.91037979     0.08320
H485        H  0.44846132  0.82700108  0.75991507     0.05850
H486        H  0.45282806  0.95932115  0.82884627     0.05690
O487        O  0.08260523  0.87858185  0.49471685    -0.80530
O488        O  0.43926596  0.96001034  0.72586874    -0.82080
O489        O  0.10736225  0.91347747  0.64449503    -0.79100
O490        O  0.47235239  0.82573808  0.62576518    -0.77490
O491        O  0.41310220  0.84528762  0.57759543    -0.79280
O492        O  0.14054168  0.99362233  0.62509037    -0.80150
O493        O  0.48674249  0.90028826  0.70649342    -0.81540
O494        O  0.06057841  0.84331870  0.57395556    -0.81830
Eu495      Eu  0.02313139  0.90457371  0.61913882     2.39200
O496        O  0.44409087  0.93071331  0.62108752    -0.89340
O497        O  0.07846025  0.96125741  0.56500145    -0.92940
C498        C  0.07851630  0.84208440  0.52916798     1.01750
C499        C  0.45919583  0.92111989  0.73726253     1.01570
C500        C  0.14290644  0.94865376  0.64153193     1.01510
C501        C  0.43358348  0.81446109  0.60553744     0.99370
H502        H  0.03679045  0.97971579  0.67540726     0.29120
O503        O  0.02496421  0.98285716  0.64382911    -1.01720
H504        H  0.49418028  0.87590059  0.52846086     0.29150
O505        O  0.49703040  0.90742559  0.54024518    -1.04260
O506        O  0.42178010  0.59427723  0.63751984    -0.81490
O507        O  0.06248269  0.51008970  0.90666803    -0.81030
O508        O  0.07160954  0.56690812  0.67332982    -0.79470
O509        O  0.33955222  0.92599367  0.59263202    -0.82810
O510        O  0.42771061  0.90947073  0.95741705    -0.80660
O511        O  0.15902917  0.54825758  0.54087922    -0.79310
O512        O  0.02386656  0.64468075  0.50374812    -0.80830
O513        O  0.39260123  0.55771069  0.98304146    -0.82750
O514        O  0.08279768  0.62834898  0.55362547    -0.79490
O515        O  0.35766893  0.97839612  0.50431051    -0.82170
O516        O  0.49191575  0.54563136  0.70792649    -0.77900
O517        O  0.14242097  0.99848863  0.98243402    -0.77940
O518        O  0.50831140  0.92843631  0.92488635    -0.77580
O519        O  0.35842097  0.97334543  0.65233725    -0.81080
O520        O  0.44104914  0.62689567  0.55714144    -0.80500
O521        O  0.51218230  0.56815409  0.92404351    -0.78830
Eu522      Eu  0.44605621  0.50963521  0.64665180     2.39770
Eu523      Eu  0.05500671  0.96183949  0.98646670     2.39570
Eu524      Eu  0.07947357  0.54052687  0.58987172     2.38400
Eu525      Eu  0.41858369  0.93291415  0.54207627     2.39880
Eu526      Eu  0.47560763  0.56531917  0.51117267     2.39790
O527        O  0.47560718  0.98712306  0.48759441    -0.93250
O528        O  0.50078153  0.56441070  0.59029047    -0.92140
C529        C  0.42495710  0.62968369  0.60205779     1.01920
C530        C  0.04125316  0.54784145  0.89424613     1.00640
C531        C  0.03690418  0.56279469  0.70956532     1.00030
C532        C  0.32794847  0.94550271  0.63162632     1.02050
C533        C  0.46321396  0.91275600  0.92204857     1.00960
C534        C  0.17177449  0.52767915  0.50292788     0.99810
C535        C  0.06169434  0.65761403  0.52453142     0.99870
C536        C  0.35633757  0.52322430  0.98660723     1.02480
H537        H  0.07821846  0.56417008  0.98758248     0.29860
O538        O  0.05548758  0.54134565  0.51034256    -1.05410
H539        H  0.38896964  0.52328741  0.57128875     0.31910
O540        O  0.42069425  0.51150868  0.56851333    -1.07970
C541        C  0.48585925  0.77826622  0.82903084    -0.06520
C542        C  0.46093397  0.73258445  0.84701522    -0.17650
C543        C  0.98059647  0.69078499  0.83552478     0.10670
C544        C  0.02713622  0.69526387  0.80703265    -0.06450
C545        C  0.05256894  0.74103361  0.78975269    -0.17680
C546        C  0.03217961  0.78303590  0.80029173     0.10710
S547        S  0.94391653  0.63311155  0.85768919    -0.32650
S548        S  0.06528771  0.84238778  0.77692011    -0.32650
H549        H  0.60501019  0.82554045  0.75009628     0.28720
H550        H  0.95753516  0.60988987  0.81655333     0.28710
H551        H  0.42505852  0.72960778  0.86813413     0.19300
H552        H  0.08833936  0.74359235  0.76861983     0.19310
C553        C  0.23788548  0.96700499  0.77648264    -0.06520
C554        C  0.27285961  0.00894712  0.76932980    -0.17650
C555        C  0.28251942  0.53546002  0.80761868     0.10670
C556        C  0.25616378  0.52000953  0.85384331    -0.06450
C557        C  0.22061481  0.97852877  0.86072556    -0.17680
C558        C  0.21115585  0.95190194  0.82256312     0.10710
S559        S  0.32855244  0.58802078  0.79512349    -0.32650
S560        S  0.16592437  0.89873710  0.83557400    -0.32650
H561        H  0.18669114  0.87214166  0.79989737     0.28720
H562        H  0.30946651  0.61357076  0.83254840     0.28710
H563        H  0.29283420  0.02117655  0.73339503     0.19300
H564        H  0.20093894  0.96585384  0.89669817     0.19310
C565        C  0.28981629  0.72378400  0.57816909    -0.06520
C566        C  0.29614562  0.75948436  0.53675025    -0.17650
C567        C  0.25742231  0.76866763  0.51026819     0.10670
C568        C  0.21160606  0.74125806  0.52536814    -0.06450
C569        C  0.20582141  0.70460721  0.56600200    -0.17680
C570        C  0.24439186  0.69549766  0.59245278     0.10710
S571        S  0.26873630  0.81556935  0.45830242    -0.32650
S572        S  0.23262359  0.64882988  0.64465093    -0.32650
H573        H  0.26609055  0.67098172  0.67272779     0.28720
H574        H  0.23130038  0.79640043  0.43274204     0.28710
H575        H  0.33169912  0.78048147  0.52501209     0.19300
H576        H  0.17024444  0.68401043  0.57855223     0.19310
C577        C  0.59697274  0.29608594  0.51699575     0.02730
C578        C  0.64783086  0.29530252  0.01043859    -0.13420
C579        C  0.66717961  0.25149820  0.00377149     0.00230
C580        C  0.63659862  0.21081805  0.99599465    -0.11950
C581        C  0.58666945  0.20788428  0.51081278     0.02720
C582        C  0.56584932  0.25119142  0.51997464    -0.11370
H583        H  0.67182683  0.32705779  0.01655432     0.08320
H584        H  0.65272396  0.17750425  0.98997351     0.05850
H585        H  0.52685691  0.24967364  0.53126672     0.05690
C586        C  0.90345982  0.17486385  0.11143836     0.02730
C587        C  0.93183645  0.22035574  0.11433464    -0.13420
C588        C  0.90830407  0.26364921  0.11527845     0.00230
C589        C  0.85762921  0.25986725  0.11595180    -0.11950
C590        C  0.83220336  0.21773256  0.10444625     0.02720
C591        C  0.85400861  0.17465047  0.10481698    -0.11370
H592        H  0.97138505  0.22241560  0.11270851     0.08320
H593        H  0.83900256  0.29249546  0.11646192     0.05850
H594        H  0.83394993  0.14213078  0.09484447     0.05690
C595        C  0.68814137  0.43845310  0.16272467     0.02730
C596        C  0.68776544  0.44213200  0.21269664    -0.13420
C597        C  0.73112874  0.44120154  0.23413002     0.00230
C598        C  0.77340579  0.43066644  0.20769464    -0.11950
C599        C  0.77717911  0.43449480  0.15697265     0.02720
C600        C  0.73382995  0.43707169  0.13382103    -0.11370
H601        H  0.65506122  0.45114026  0.23356258     0.08320
H602        H  0.80630364  0.42922506  0.22585805     0.05850
H603        H  0.73597825  0.44103888  0.09426702     0.05690
C604        C  0.81054277  0.03511181  0.46755044     0.02730
C605        C  0.80969065  0.03820260  0.41692383    -0.13420
C606        C  0.76567161  0.04312175  0.39729642     0.00230
C607        C  0.72456222  0.05194963  0.42689646    -0.11950
C608        C  0.72197674  0.04095797  0.47728797     0.02720
C609        C  0.76562743  0.03386369  0.99845892    -0.11370
H610        H  0.84164555  0.03091476  0.39367341     0.08320
H611        H  0.69101237  0.05632186  0.41045368     0.05850
H612        H  0.76429693  0.02493566  0.03770620     0.05690
C613        C  0.54827745  0.08194878  0.25518301     0.02730
C614        C  0.54877335  0.13231930  0.25555185    -0.13420
C615        C  0.55099444  0.15215750  0.29934113     0.00230
C616        C  0.56012529  0.12403803  0.34103592    -0.11950
C617        C  0.55315685  0.07341461  0.34387488     0.02720
C618        C  0.54815362  0.05154844  0.30031075    -0.11370
H619        H  0.54131551  0.15504929  0.22331337     0.08320
H620        H  0.56236649  0.14124789  0.37427324     0.05850
H621        H  0.54146543  0.01214098  0.30186925     0.05690
C622        C  0.95367084  0.39154882  0.37698802     0.02730
C623        C  0.95993974  0.34216494  0.37764657    -0.13420
C624        C  0.96049742  0.32078066  0.33464650     0.00230
C625        C  0.94880568  0.34575584  0.29234571    -0.11950
C626        C  0.94954669  0.39622643  0.28818986     0.02720
C627        C  0.95085881  0.41985849  0.33125822    -0.11370
H628        H  0.96941962  0.32173895  0.41037978     0.08320
H629        H  0.94846131  0.32700109  0.25991507     0.05850
H630        H  0.95282806  0.45932115  0.32884627     0.05690
O631        O  0.58260521  0.37858184  0.99471684    -0.80530
O632        O  0.93926595  0.46001034  0.22586875    -0.82080
O633        O  0.60736223  0.41347747  0.14449502    -0.79100
O634        O  0.97235237  0.32573808  0.12576518    -0.77490
O635        O  0.91310218  0.34528762  0.07759544    -0.79280
O636        O  0.64054166  0.49362233  0.12509037    -0.80150
O637        O  0.98674248  0.40028827  0.20649342    -0.81540
O638        O  0.56057839  0.34331870  0.07395556    -0.81830
Eu639      Eu  0.52313137  0.40457371  0.11913882     2.39200
O640        O  0.94409085  0.43071331  0.12108752    -0.89340
O641        O  0.57846022  0.46125740  0.06500144    -0.92940
C642        C  0.57851628  0.34208440  0.02916798     1.01750
C643        C  0.95919582  0.42111989  0.23726254     1.01570
C644        C  0.64290642  0.44865376  0.14153193     1.01510
C645        C  0.93358346  0.31446109  0.10553744     0.99370
H646        H  0.53679044  0.47971579  0.17540726     0.29120
O647        O  0.52496419  0.48285716  0.14382910    -1.01720
H648        H  0.99418026  0.37590059  0.02846086     0.29150
O649        O  0.99703038  0.40742559  0.04024518    -1.04260
O650        O  0.92178008  0.09427722  0.13751985    -0.81490
O651        O  0.56248271  0.01008970  0.40666803    -0.81030
O652        O  0.57160952  0.06690811  0.17332982    -0.79470
O653        O  0.83955220  0.42599366  0.09263203    -0.82810
O654        O  0.92771063  0.40947073  0.45741705    -0.80660
O655        O  0.65902915  0.04825757  0.04087921    -0.79310
O656        O  0.52386654  0.14468075  0.00374812    -0.80830
O657        O  0.89260125  0.05771069  0.48304145    -0.82750
O658        O  0.58279766  0.12834897  0.05362548    -0.79490
O659        O  0.85766890  0.47839611  0.00431051    -0.82170
O660        O  0.99191573  0.04563135  0.20792650    -0.77900
O661        O  0.64242099  0.49848863  0.48243402    -0.77940
O662        O  0.00831142  0.42843631  0.42488635    -0.77580
O663        O  0.85842095  0.47334542  0.15233725    -0.81080
O664        O  0.94104911  0.12689566  0.05714145    -0.80500
O665        O  0.01218232  0.06815409  0.42404351    -0.78830
Eu666      Eu  0.94605619  0.00963520  0.14665180     2.39770
Eu667      Eu  0.55500673  0.46183950  0.48646670     2.39570
Eu668      Eu  0.57947355  0.04052686  0.08987172     2.38400
Eu669      Eu  0.91858367  0.43291414  0.04207627     2.39880
Eu670      Eu  0.97560761  0.06531917  0.01117268     2.39790
O671        O  0.97560715  0.48712305  0.98759441    -0.93250
O672        O  0.00078151  0.06441070  0.09029047    -0.92140
C673        C  0.92495708  0.12968369  0.10205780     1.01920
C674        C  0.54125318  0.04784145  0.39424613     1.00640
C675        C  0.53690417  0.06279469  0.20956532     1.00030
C676        C  0.82794845  0.44550270  0.13162632     1.02050
C677        C  0.96321398  0.41275601  0.42204857     1.00960
C678        C  0.67177447  0.02767914  0.00292788     0.99810
C679        C  0.56169432  0.15761403  0.02453143     0.99870
C680        C  0.85633759  0.02322431  0.48660723     1.02480
H681        H  0.57821848  0.06417008  0.48758249     0.29860
O682        O  0.55548756  0.04134564  0.01034257    -1.05410
H683        H  0.88896962  0.02328740  0.07128876     0.31910
O684        O  0.92069423  0.01150868  0.06851334    -1.07970
C685        C  0.98585926  0.27826622  0.32903084    -0.06520
C686        C  0.96093399  0.23258445  0.34701524    -0.17650
C687        C  0.48059650  0.19078499  0.33552481     0.10670
C688        C  0.52713624  0.19526387  0.30703266    -0.06450
C689        C  0.55256895  0.24103360  0.28975267    -0.17680
C690        C  0.53217962  0.28303590  0.30029169     0.10710
S691        S  0.44391657  0.13311156  0.35768925    -0.32650
S692        S  0.56528772  0.34238778  0.27692004    -0.32650
H693        H  0.10501017  0.32554044  0.25009622     0.28720
H694        H  0.45753517  0.10988986  0.31655340     0.28710
H695        H  0.92505854  0.22960779  0.36813416     0.19300
H696        H  0.58833936  0.24359234  0.26861978     0.19310
C697        C  0.73788546  0.46700503  0.27648263    -0.06520
C698        C  0.77285960  0.50894714  0.26932979    -0.17650
C699        C  0.78251942  0.03546001  0.30761868     0.10670
C700        C  0.75616379  0.02000952  0.35384331    -0.06450
C701        C  0.72061480  0.47852882  0.36072556    -0.17680
C702        C  0.71115583  0.45190199  0.32256311     0.10710
S703        S  0.82855246  0.08802076  0.29512349    -0.32650
S704        S  0.66592432  0.39873717  0.33557399    -0.32650
H705        H  0.68669109  0.37214171  0.29989737     0.28720
H706        H  0.80946653  0.11357075  0.33254839     0.28710
H707        H  0.79283421  0.52117657  0.23339502     0.19300
H708        H  0.70093892  0.46585389  0.39669816     0.19310
C709        C  0.78981627  0.22378399  0.07816912    -0.06520
C710        C  0.79614560  0.25948435  0.03675027    -0.17650
C711        C  0.75742229  0.26866762  0.01026822     0.10670
C712        C  0.71160604  0.24125806  0.02536817    -0.06450
C713        C  0.70582138  0.20460722  0.06600204    -0.17680
C714        C  0.74439184  0.19549766  0.09245281     0.10710
S715        S  0.76873628  0.31556933  0.95830244    -0.32650
S716        S  0.73262356  0.14882990  0.14465097    -0.32650
H717        H  0.76609053  0.17098173  0.17272783     0.28720
H718        H  0.73130036  0.29640041  0.93274206     0.28710
H719        H  0.83169910  0.28048145  0.02501212     0.19300
H720        H  0.67024441  0.18401044  0.07855227     0.19310
C721        C  0.59697272  0.29608594  0.01699576     0.02730
C722        C  0.64783088  0.29530253  0.51043856    -0.13420
C723        C  0.66717963  0.25149820  0.50377146     0.00230
C724        C  0.63659864  0.21081806  0.49599462    -0.11950
C725        C  0.58666944  0.20788428  0.01081279     0.02720
C726        C  0.56584930  0.25119142  0.01997464    -0.11370
H727        H  0.67182685  0.32705779  0.51655430     0.08320
H728        H  0.65272397  0.17750425  0.48997347     0.05850
H729        H  0.52685689  0.24967364  0.03126671     0.05690
C730        C  0.90345984  0.17486386  0.61143834     0.02730
C731        C  0.93183646  0.22035574  0.61433463    -0.13420
C732        C  0.90830409  0.26364921  0.61527844     0.00230
C733        C  0.85762922  0.25986725  0.61595177    -0.11950
C734        C  0.83220338  0.21773257  0.60444621     0.02720
C735        C  0.85400863  0.17465048  0.60481695    -0.11370
H736        H  0.97138506  0.22241560  0.61270852     0.08320
H737        H  0.83900257  0.29249547  0.61646189     0.05850
H738        H  0.83394996  0.14213079  0.59484443     0.05690
C739        C  0.68814139  0.43845309  0.66272467     0.02730
C740        C  0.68776545  0.44213199  0.71269663    -0.13420
C741        C  0.73112875  0.44120153  0.73413002     0.00230
C742        C  0.77340581  0.43066643  0.70769463    -0.11950
C743        C  0.77717913  0.43449480  0.65697265     0.02720
C744        C  0.73382997  0.43707169  0.63382102    -0.11370
H745        H  0.65506124  0.45114024  0.73356258     0.08320
H746        H  0.80630366  0.42922505  0.72585804     0.05850
H747        H  0.73597827  0.44103889  0.59426701     0.05690
C748        C  0.81054275  0.03511180  0.96755045     0.02730
C749        C  0.80969063  0.03820259  0.91692384    -0.13420
C750        C  0.76567159  0.04312173  0.89729643     0.00230
C751        C  0.72456220  0.05194961  0.92689646    -0.11950
C752        C  0.72197671  0.04095796  0.97728798     0.02720
C753        C  0.76562745  0.03386370  0.49845891    -0.11370
H754        H  0.84164553  0.03091476  0.89367342     0.08320
H755        H  0.69101235  0.05632183  0.91045368     0.05850
H756        H  0.76429696  0.02493567  0.53770619     0.05690
C757        C  0.54827747  0.08194879  0.75518301     0.02730
C758        C  0.54877339  0.13231931  0.75555185    -0.13420
C759        C  0.55099447  0.15215751  0.79934113     0.00230
C760        C  0.56012530  0.12403803  0.84103593    -0.11950
C761        C  0.55315685  0.07341462  0.84387488     0.02720
C762        C  0.54815362  0.05154844  0.80031075    -0.11370
H763        H  0.54131556  0.15504930  0.72331336     0.08320
H764        H  0.56236650  0.14124789  0.87427324     0.05850
H765        H  0.54146542  0.01214098  0.80186925     0.05690
C766        C  0.95367082  0.39154882  0.87698802     0.02730
C767        C  0.95993972  0.34216494  0.87764657    -0.13420
C768        C  0.96049741  0.32078066  0.83464650     0.00230
C769        C  0.94880568  0.34575584  0.79234571    -0.11950
C770        C  0.94954669  0.39622643  0.78818985     0.02720
C771        C  0.95085880  0.41985849  0.83125822    -0.11370
H772        H  0.96941959  0.32173895  0.91037979     0.08320
H773        H  0.94846132  0.32700109  0.75991507     0.05850
H774        H  0.95282805  0.45932115  0.82884627     0.05690
O775        O  0.58260523  0.37858185  0.49471684    -0.80530
O776        O  0.93926596  0.46001034  0.72586874    -0.82080
O777        O  0.60736225  0.41347747  0.64449502    -0.79100
O778        O  0.97235239  0.32573808  0.62576518    -0.77490
O779        O  0.91310219  0.34528762  0.57759543    -0.79280
O780        O  0.64054168  0.49362233  0.62509037    -0.80150
O781        O  0.98674249  0.40028827  0.70649342    -0.81540
O782        O  0.56057841  0.34331870  0.57395556    -0.81830
Eu783      Eu  0.52313139  0.40457371  0.61913882     2.39200
O784        O  0.94409087  0.43071331  0.62108752    -0.89340
O785        O  0.57846025  0.46125741  0.56500144    -0.92940
C786        C  0.57851630  0.34208440  0.52916797     1.01750
C787        C  0.95919583  0.42111989  0.73726253     1.01570
C788        C  0.64290644  0.44865376  0.64153193     1.01510
C789        C  0.93358348  0.31446109  0.60553744     0.99370
H790        H  0.53679045  0.47971579  0.67540726     0.29120
O791        O  0.52496421  0.48285716  0.64382910    -1.01720
H792        H  0.99418028  0.37590059  0.52846086     0.29150
O793        O  0.99703040  0.40742559  0.54024518    -1.04260
O794        O  0.92178010  0.09427723  0.63751984    -0.81490
O795        O  0.56248269  0.01008970  0.90666803    -0.81030
O796        O  0.57160955  0.06690812  0.67332982    -0.79470
O797        O  0.83955222  0.42599366  0.59263202    -0.82810
O798        O  0.92771061  0.40947073  0.95741705    -0.80660
O799        O  0.65902917  0.04825758  0.54087921    -0.79310
O800        O  0.52386656  0.14468075  0.50374812    -0.80830
O801        O  0.89260123  0.05771069  0.98304146    -0.82750
O802        O  0.58279768  0.12834898  0.55362547    -0.79490
O803        O  0.85766893  0.47839612  0.50431051    -0.82170
O804        O  0.99191575  0.04563137  0.70792649    -0.77900
O805        O  0.64242097  0.49848863  0.98243402    -0.77940
O806        O  0.00831140  0.42843631  0.92488635    -0.77580
O807        O  0.85842097  0.47334543  0.65233725    -0.81080
O808        O  0.94104914  0.12689567  0.55714144    -0.80500
O809        O  0.01218230  0.06815409  0.92404351    -0.78830
Eu810      Eu  0.94605621  0.00963522  0.64665180     2.39770
Eu811      Eu  0.55500671  0.46183949  0.98646670     2.39570
Eu812      Eu  0.57947357  0.04052687  0.58987172     2.38400
Eu813      Eu  0.91858369  0.43291415  0.54207627     2.39880
Eu814      Eu  0.97560764  0.06531917  0.51117267     2.39790
O815        O  0.97560718  0.48712306  0.48759441    -0.93250
O816        O  0.00078153  0.06441071  0.59029047    -0.92140
C817        C  0.92495710  0.12968370  0.60205779     1.01920
C818        C  0.54125317  0.04784145  0.89424613     1.00640
C819        C  0.53690419  0.06279469  0.70956532     1.00030
C820        C  0.82794847  0.44550271  0.63162632     1.02050
C821        C  0.96321396  0.41275601  0.92204857     1.00960
C822        C  0.67177450  0.02767915  0.50292788     0.99810
C823        C  0.56169434  0.15761403  0.52453142     0.99870
C824        C  0.85633757  0.02322430  0.98660724     1.02480
H825        H  0.57821846  0.06417008  0.98758249     0.29860
O826        O  0.55548758  0.04134565  0.51034256    -1.05410
H827        H  0.88896964  0.02328741  0.57128875     0.31910
O828        O  0.92069425  0.01150868  0.56851333    -1.07970
C829        C  0.98585925  0.27826622  0.82903084    -0.06520
C830        C  0.96093397  0.23258445  0.84701523    -0.17650
C831        C  0.48059652  0.19078499  0.83552478     0.10670
C832        C  0.52713627  0.19526388  0.80703265    -0.06450
C833        C  0.55256899  0.24103361  0.78975270    -0.17680
C834        C  0.53217966  0.28303590  0.80029173     0.10710
S835        S  0.44391657  0.13311155  0.85768917    -0.32650
S836        S  0.56528775  0.34238779  0.77692011    -0.32650
H837        H  0.10501018  0.32554045  0.75009627     0.28720
H838        H  0.45753520  0.10988988  0.81655331     0.28710
H839        H  0.92505852  0.22960778  0.86813413     0.19300
H840        H  0.58833941  0.24359235  0.76861984     0.19310
C841        C  0.73788548  0.46700501  0.77648263    -0.06520
C842        C  0.77285961  0.50894713  0.76932980    -0.17650
C843        C  0.78251942  0.03546000  0.80761868     0.10670
C844        C  0.75616378  0.02000951  0.85384331    -0.06450
C845        C  0.72061481  0.47852879  0.86072556    -0.17680
C846        C  0.71115585  0.45190196  0.82256311     0.10710
S847        S  0.82855244  0.08802076  0.79512350    -0.32650
S848        S  0.66592437  0.39873712  0.83557399    -0.32650
H849        H  0.68669114  0.37214168  0.79989737     0.28720
H850        H  0.80946650  0.11357074  0.83254840     0.28710
H851        H  0.79283421  0.52117656  0.73339502     0.19300
H852        H  0.70093893  0.46585386  0.89669816     0.19310
C853        C  0.78981629  0.22378400  0.57816908    -0.06520
C854        C  0.79614562  0.25948437  0.53675024    -0.17650
C855        C  0.75742231  0.26866764  0.51026818     0.10670
C856        C  0.71160606  0.24125806  0.52536812    -0.06450
C857        C  0.70582141  0.20460721  0.56600199    -0.17680
C858        C  0.74439186  0.19549766  0.59245276     0.10710
S859        S  0.76873630  0.31556936  0.45830242    -0.32650
S860        S  0.73262359  0.14882988  0.64465091    -0.32650
H861        H  0.76609055  0.17098172  0.67272778     0.28720
H862        H  0.73130038  0.29640044  0.43274203     0.28710
H863        H  0.83169911  0.28048148  0.52501209     0.19300
H864        H  0.67024444  0.18401042  0.57855221     0.19310
C865        C  0.59697273  0.79608594  0.51699576     0.02730
C866        C  0.64783086  0.79530252  0.01043857    -0.13420
C867        C  0.66717961  0.75149820  0.00377147     0.00230
C868        C  0.63659861  0.71081805  0.99599463    -0.11950
C869        C  0.58666945  0.70788428  0.51081278     0.02720
C870        C  0.56584932  0.75119142  0.51997464    -0.11370
H871        H  0.67182683  0.82705779  0.01655430     0.08320
H872        H  0.65272395  0.67750425  0.98997348     0.05850
H873        H  0.52685691  0.74967364  0.53126673     0.05690
C874        C  0.90345982  0.67486385  0.11143834     0.02730
C875        C  0.93183644  0.72035574  0.11433463    -0.13420
C876        C  0.90830407  0.76364921  0.11527844     0.00230
C877        C  0.85762920  0.75986725  0.11595177    -0.11950
C878        C  0.83220336  0.71773256  0.10444621     0.02720
C879        C  0.85400861  0.67465047  0.10481695    -0.11370
H880        H  0.97138504  0.72241560  0.11270852     0.08320
H881        H  0.83900256  0.79249546  0.11646189     0.05850
H882        H  0.83394993  0.64213078  0.09484443     0.05690
C883        C  0.68814137  0.93845309  0.16272467     0.02730
C884        C  0.68776543  0.94213198  0.21269664    -0.13420
C885        C  0.73112873  0.94120152  0.23413002     0.00230
C886        C  0.77340578  0.93066641  0.20769464    -0.11950
C887        C  0.77717910  0.93449478  0.15697265     0.02720
C888        C  0.73382995  0.93707168  0.13382102    -0.11370
H889        H  0.65506122  0.95114024  0.23356258     0.08320
H890        H  0.80630364  0.92922503  0.22585805     0.05850
H891        H  0.73597824  0.94103888  0.09426702     0.05690
C892        C  0.81054277  0.53511181  0.46755045     0.02730
C893        C  0.80969065  0.53820261  0.41692383    -0.13420
C894        C  0.76567160  0.54312177  0.39729643     0.00230
C895        C  0.72456222  0.55194965  0.42689646    -0.11950
C896        C  0.72197674  0.54095798  0.47728798     0.02720
C897        C  0.76562743  0.53386369  0.99845892    -0.11370
H898        H  0.84164554  0.53091478  0.39367341     0.08320
H899        H  0.69101237  0.55632188  0.41045369     0.05850
H900        H  0.76429693  0.52493565  0.03770620     0.05690
C901        C  0.54827745  0.58194879  0.25518301     0.02730
C902        C  0.54877335  0.63231930  0.25555186    -0.13420
C903        C  0.55099444  0.65215750  0.29934113     0.00230
C904        C  0.56012528  0.62403803  0.34103592    -0.11950
C905        C  0.55315685  0.57341462  0.34387488     0.02720
C906        C  0.54815362  0.55154844  0.30031075    -0.11370
H907        H  0.54131551  0.65504929  0.22331337     0.08320
H908        H  0.56236649  0.64124789  0.37427324     0.05850
H909        H  0.54146542  0.51214098  0.30186925     0.05690
C910        C  0.95367086  0.89154882  0.37698802     0.02730
C911        C  0.95993978  0.84216494  0.37764657    -0.13420
C912        C  0.96049748  0.82078066  0.33464650     0.00230
C913        C  0.94880573  0.84575583  0.29234571    -0.11950
C914        C  0.94954671  0.89622642  0.28818986     0.02720
C915        C  0.95085881  0.91985848  0.33125822    -0.11370
H916        H  0.96941967  0.82173896  0.41037979     0.08320
H917        H  0.94846137  0.82700107  0.25991508     0.05850
H918        H  0.95282804  0.95932114  0.32884628     0.05690
O919        O  0.58260521  0.87858184  0.99471684    -0.80530
O920        O  0.93926595  0.96001032  0.22586875    -0.82080
O921        O  0.60736223  0.91347746  0.14449503    -0.79100
O922        O  0.97235237  0.82573807  0.12576517    -0.77490
O923        O  0.91310217  0.84528762  0.07759543    -0.79280
O924        O  0.64054166  0.99362232  0.12509037    -0.80150
O925        O  0.98674248  0.90028826  0.20649342    -0.81540
O926        O  0.56057839  0.84331869  0.07395556    -0.81830
Eu927      Eu  0.52313137  0.90457371  0.11913882     2.39200
O928        O  0.94409085  0.93071330  0.12108752    -0.89340
O929        O  0.57846022  0.96125740  0.06500144    -0.92940
C930        C  0.57851627  0.84208440  0.02916797     1.01750
C931        C  0.95919583  0.92111988  0.23726254     1.01570
C932        C  0.64290642  0.94865375  0.14153193     1.01510
C933        C  0.93358346  0.81446109  0.10553744     0.99370
H934        H  0.53679043  0.97971578  0.17540726     0.29120
O935        O  0.52496419  0.98285716  0.14382910    -1.01720
H936        H  0.99418026  0.87590059  0.02846086     0.29150
O937        O  0.99703038  0.90742559  0.04024518    -1.04260
O938        O  0.92178008  0.59427723  0.13751984    -0.81490
O939        O  0.56248271  0.51008970  0.40666803    -0.81030
O940        O  0.57160952  0.56690812  0.17332982    -0.79470
O941        O  0.83955220  0.92599365  0.09263202    -0.82810
O942        O  0.92771063  0.90947074  0.45741705    -0.80660
O943        O  0.65902915  0.54825757  0.04087921    -0.79310
O944        O  0.52386654  0.64468075  0.00374812    -0.80830
O945        O  0.89260125  0.55771069  0.48304145    -0.82750
O946        O  0.58279766  0.62834898  0.05362547    -0.79490
O947        O  0.85766891  0.97839611  0.00431051    -0.82170
O948        O  0.99191574  0.54563136  0.20792649    -0.77900
O949        O  0.64242099  0.99848863  0.48243402    -0.77940
O950        O  0.00831143  0.92843631  0.42488635    -0.77580
O951        O  0.85842095  0.97334541  0.15233726    -0.81080
O952        O  0.94104911  0.62689566  0.05714144    -0.80500
O953        O  0.01218232  0.56815409  0.42404350    -0.78830
Eu954      Eu  0.94605620  0.50963521  0.14665180     2.39770
Eu955      Eu  0.55500673  0.96183950  0.48646670     2.39570
Eu956      Eu  0.57947355  0.54052686  0.08987172     2.38400
Eu957      Eu  0.91858367  0.93291415  0.04207627     2.39880
Eu958      Eu  0.97560761  0.56531917  0.01117267     2.39790
O959        O  0.97560715  0.98712306  0.98759441    -0.93250
O960        O  0.00078151  0.56441070  0.09029046    -0.92140
C961        C  0.92495708  0.62968369  0.10205779     1.01920
C962        C  0.54125318  0.54784145  0.39424613     1.00640
C963        C  0.53690417  0.56279469  0.20956532     1.00030
C964        C  0.82794845  0.94550270  0.13162632     1.02050
C965        C  0.96321399  0.91275601  0.42204857     1.00960
C966        C  0.67177447  0.52767914  0.00292788     0.99810
C967        C  0.56169432  0.65761403  0.02453142     0.99870
C968        C  0.85633759  0.52322430  0.48660723     1.02480
H969        H  0.57821848  0.56417009  0.48758249     0.29860
O970        O  0.55548756  0.54134565  0.01034257    -1.05410
H971        H  0.88896962  0.52328740  0.07128876     0.31910
O972        O  0.92069423  0.51150868  0.06851334    -1.07970
C973        C  0.98585932  0.77826623  0.32903085    -0.06520
C974        C  0.96093405  0.73258446  0.34701524    -0.17650
C975        C  0.48059650  0.69078500  0.33552481     0.10670
C976        C  0.52713624  0.69526387  0.30703266    -0.06450
C977        C  0.55256895  0.74103360  0.28975267    -0.17680
C978        C  0.53217962  0.78303590  0.30029170     0.10710
S979        S  0.44391656  0.63311156  0.35768925    -0.32650
S980        S  0.56528771  0.84238778  0.27692005    -0.32650
H981        H  0.10501023  0.82554045  0.25009624     0.28720
H982        H  0.45753517  0.60988987  0.31655340     0.28710
H983        H  0.92505860  0.72960779  0.36813415     0.19300
H984        H  0.58833936  0.74359234  0.26861979     0.19310
C985        C  0.73788547  0.96700500  0.27648264    -0.06520
C986        C  0.77285960  0.00894712  0.26932979    -0.17650
C987        C  0.78251942  0.53546003  0.30761868     0.10670
C988        C  0.75616378  0.52000955  0.35384331    -0.06450
C989        C  0.72061481  0.97852879  0.36072556    -0.17680
C990        C  0.71115583  0.95190196  0.32256312     0.10710
S991        S  0.82855246  0.58802078  0.29512349    -0.32650
S992        S  0.66592434  0.89873713  0.33557400    -0.32650
H993        H  0.68669109  0.87214168  0.29989737     0.28720
H994        H  0.80946653  0.61357077  0.33254840     0.28710
H995        H  0.79283420  0.02117654  0.23339502     0.19300
H996        H  0.70093893  0.96585386  0.39669817     0.19310
C997        C  0.78981627  0.72378399  0.07816909    -0.06520
C998        C  0.79614560  0.75948436  0.03675024    -0.17650
C999        C  0.75742229  0.76866763  0.01026819     0.10670
C1000       C  0.71160604  0.74125806  0.02536813    -0.06450
C1001       C  0.70582139  0.70460721  0.06600200    -0.17680
C1002       C  0.74439184  0.69549766  0.09245277     0.10710
S1003       S  0.76873627  0.81556934  0.95830241    -0.32650
S1004       S  0.73262357  0.64882988  0.14465093    -0.32650
H1005       H  0.76609053  0.67098172  0.17272779     0.28720
H1006       H  0.73130035  0.79640042  0.93274203     0.28710
H1007       H  0.83169909  0.78048146  0.02501209     0.19300
H1008       H  0.67024442  0.68401043  0.07855223     0.19310
C1009       C  0.59697271  0.79608593  0.01699576     0.02730
C1010       C  0.64783088  0.79530253  0.51043856    -0.13420
C1011       C  0.66717963  0.75149820  0.50377145     0.00230
C1012       C  0.63659863  0.71081805  0.49599462    -0.11950
C1013       C  0.58666943  0.70788428  0.01081278     0.02720
C1014       C  0.56584930  0.75119142  0.01997464    -0.11370
H1015       H  0.67182685  0.82705779  0.51655429     0.08320
H1016       H  0.65272396  0.67750425  0.48997346     0.05850
H1017       H  0.52685689  0.74967363  0.03126672     0.05690
C1018       C  0.90345984  0.67486386  0.61143833     0.02730
C1019       C  0.93183646  0.72035574  0.61433463    -0.13420
C1020       C  0.90830409  0.76364921  0.61527843     0.00230
C1021       C  0.85762923  0.75986726  0.61595175    -0.11950
C1022       C  0.83220339  0.71773257  0.60444619     0.02720
C1023       C  0.85400864  0.67465048  0.60481693    -0.11370
H1024       H  0.97138506  0.72241560  0.61270852     0.08320
H1025       H  0.83900258  0.79249547  0.61646187     0.05850
H1026       H  0.83394996  0.64213079  0.59484441     0.05690
C1027       C  0.68814139  0.93845309  0.66272467     0.02730
C1028       C  0.68776545  0.94213197  0.71269664    -0.13420
C1029       C  0.73112875  0.94120150  0.73413002     0.00230
C1030       C  0.77340581  0.93066641  0.70769463    -0.11950
C1031       C  0.77717913  0.93449479  0.65697264     0.02720
C1032       C  0.73382997  0.93707169  0.63382102    -0.11370
H1033       H  0.65506124  0.95114022  0.73356259     0.08320
H1034       H  0.80630366  0.92922503  0.72585804     0.05850
H1035       H  0.73597827  0.94103890  0.59426701     0.05690
C1036       C  0.81054275  0.53511180  0.96755045     0.02730
C1037       C  0.80969063  0.53820260  0.91692384    -0.13420
C1038       C  0.76567159  0.54312176  0.89729643     0.00230
C1039       C  0.72456220  0.55194963  0.92689646    -0.11950
C1040       C  0.72197672  0.54095797  0.97728798     0.02720
C1041       C  0.76562745  0.53386369  0.49845891    -0.11370
H1042       H  0.84164553  0.53091477  0.89367342     0.08320
H1043       H  0.69101235  0.55632186  0.91045368     0.05850
H1044       H  0.76429696  0.52493565  0.53770619     0.05690
C1045       C  0.54827746  0.58194879  0.75518301     0.02730
C1046       C  0.54877336  0.63231930  0.75555185    -0.13420
C1047       C  0.55099444  0.65215750  0.79934113     0.00230
C1048       C  0.56012527  0.62403803  0.84103593    -0.11950
C1049       C  0.55315684  0.57341462  0.84387488     0.02720
C1050       C  0.54815362  0.55154844  0.80031075    -0.11370
H1051       H  0.54131552  0.65504930  0.72331336     0.08320
H1052       H  0.56236647  0.64124789  0.87427325     0.05850
H1053       H  0.54146543  0.51214098  0.80186925     0.05690
C1054       C  0.95367082  0.89154882  0.87698802     0.02730
C1055       C  0.95993971  0.84216493  0.87764658    -0.13420
C1056       C  0.96049740  0.82078065  0.83464650     0.00230
C1057       C  0.94880567  0.84575583  0.79234571    -0.11950
C1058       C  0.94954669  0.89622643  0.78818986     0.02720
C1059       C  0.95085880  0.91985849  0.83125822    -0.11370
H1060       H  0.96941958  0.82173894  0.91037979     0.08320
H1061       H  0.94846131  0.82700108  0.75991507     0.05850
H1062       H  0.95282806  0.95932115  0.82884627     0.05690
O1063       O  0.58260523  0.87858185  0.49471684    -0.80530
O1064       O  0.93926596  0.96001034  0.72586874    -0.82080
O1065       O  0.60736225  0.91347747  0.64449503    -0.79100
O1066       O  0.97235239  0.82573808  0.62576517    -0.77490
O1067       O  0.91310220  0.84528763  0.57759543    -0.79280
O1068       O  0.64054169  0.99362233  0.62509037    -0.80150
O1069       O  0.98674249  0.90028826  0.70649343    -0.81540
O1070       O  0.56057841  0.84331870  0.57395556    -0.81830
Eu1071     Eu  0.52313139  0.90457371  0.61913882     2.39200
O1072       O  0.94409087  0.93071331  0.62108752    -0.89340
O1073       O  0.57846025  0.96125741  0.56500144    -0.92940
C1074       C  0.57851630  0.84208440  0.52916797     1.01750
C1075       C  0.95919583  0.92111989  0.73726254     1.01570
C1076       C  0.64290644  0.94865375  0.64153193     1.01510
C1077       C  0.93358348  0.81446109  0.60553743     0.99370
H1078       H  0.53679046  0.97971579  0.67540726     0.29120
O1079       O  0.52496421  0.98285716  0.64382910    -1.01720
H1080       H  0.99418028  0.87590059  0.52846086     0.29150
O1081       O  0.99703040  0.90742560  0.54024518    -1.04260
O1082       O  0.92178010  0.59427724  0.63751983    -0.81490
O1083       O  0.56248269  0.51008970  0.90666803    -0.81030
O1084       O  0.57160954  0.56690812  0.67332982    -0.79470
O1085       O  0.83955222  0.92599367  0.59263202    -0.82810
O1086       O  0.92771061  0.90947072  0.95741706    -0.80660
O1087       O  0.65902917  0.54825758  0.54087922    -0.79310
O1088       O  0.52386656  0.64468075  0.50374812    -0.80830
O1089       O  0.89260123  0.55771068  0.98304146    -0.82750
O1090       O  0.58279768  0.62834898  0.55362547    -0.79490
O1091       O  0.85766893  0.97839612  0.50431050    -0.82170
O1092       O  0.99191575  0.54563137  0.70792649    -0.77900
O1093       O  0.64242097  0.99848862  0.98243402    -0.77940
O1094       O  0.00831140  0.92843631  0.92488635    -0.77580
O1095       O  0.85842097  0.97334543  0.65233725    -0.81080
O1096       O  0.94104914  0.62689567  0.55714143    -0.80500
O1097       O  0.01218230  0.56815409  0.92404351    -0.78830
Eu1098     Eu  0.94605622  0.50963522  0.64665179     2.39770
Eu1099     Eu  0.55500671  0.96183949  0.98646670     2.39570
Eu1100     Eu  0.57947356  0.54052687  0.58987172     2.38400
Eu1101     Eu  0.91858369  0.93291416  0.54207627     2.39880
Eu1102     Eu  0.97560764  0.56531917  0.51117267     2.39790
O1103       O  0.97560718  0.98712306  0.48759441    -0.93250
O1104       O  0.00078153  0.56441071  0.59029046    -0.92140
C1105       C  0.92495710  0.62968370  0.60205778     1.01920
C1106       C  0.54125316  0.54784145  0.89424613     1.00640
C1107       C  0.53690418  0.56279469  0.70956532     1.00030
C1108       C  0.82794847  0.94550271  0.63162632     1.02050
C1109       C  0.96321396  0.91275600  0.92204858     1.00960
C1110       C  0.67177449  0.52767915  0.50292788     0.99810
C1111       C  0.56169433  0.65761403  0.52453142     0.99870
C1112       C  0.85633757  0.52322430  0.98660724     1.02480
H1113       H  0.57821846  0.56417008  0.98758249     0.29860
O1114       O  0.55548758  0.54134565  0.51034257    -1.05410
H1115       H  0.88896964  0.52328741  0.57128875     0.31910
O1116       O  0.92069426  0.51150868  0.56851333    -1.07970
C1117       C  0.98585924  0.77826622  0.82903085    -0.06520
C1118       C  0.96093396  0.73258445  0.84701522    -0.17650
C1119       C  0.48059648  0.69078499  0.83552479     0.10670
C1120       C  0.52713623  0.69526387  0.80703265    -0.06450
C1121       C  0.55256895  0.74103361  0.78975269    -0.17680
C1122       C  0.53217961  0.78303590  0.80029172     0.10710
S1123       S  0.44391654  0.63311155  0.85768919    -0.32650
S1124       S  0.56528771  0.84238778  0.77692010    -0.32650
H1125       H  0.10501019  0.82554046  0.75009630     0.28720
H1126       H  0.45753517  0.60988987  0.81655334     0.28710
H1127       H  0.92505851  0.72960777  0.86813412     0.19300
H1128       H  0.58833937  0.74359235  0.76861983     0.19310
C1129       C  0.73788548  0.96700498  0.77648264    -0.06520
C1130       C  0.77285961  0.00894710  0.76932980    -0.17650
C1131       C  0.78251942  0.53546002  0.80761868     0.10670
C1132       C  0.75616378  0.52000954  0.85384331    -0.06450
C1133       C  0.72061481  0.97852876  0.86072556    -0.17680
C1134       C  0.71115585  0.95190193  0.82256312     0.10710
S1135       S  0.82855244  0.58802079  0.79512350    -0.32650
S1136       S  0.66592437  0.89873709  0.83557399    -0.32650
H1137       H  0.68669114  0.87214165  0.79989736     0.28720
H1138       H  0.80946651  0.61357077  0.83254840     0.28710
H1139       H  0.79283421  0.02117654  0.73339503     0.19300
H1140       H  0.70093894  0.96585383  0.89669817     0.19310
C1141       C  0.78981630  0.72378400  0.57816906    -0.06520
C1142       C  0.79614562  0.75948436  0.53675022    -0.17650
C1143       C  0.75742231  0.76866763  0.51026816     0.10670
C1144       C  0.71160606  0.74125806  0.52536811    -0.06450
C1145       C  0.70582141  0.70460721  0.56600197    -0.17680
C1146       C  0.74439187  0.69549765  0.59245275     0.10710
S1147       S  0.76873629  0.81556935  0.45830239    -0.32650
S1148       S  0.73262360  0.64882988  0.64465090    -0.32650
H1149       H  0.76609056  0.67098172  0.67272776     0.28720
H1150       H  0.73130037  0.79640043  0.43274202     0.28710
H1151       H  0.83169911  0.78048147  0.52501207     0.19300
H1152       H  0.67024445  0.68401042  0.57855220     0.19310
loop_ 
_geom_bond_atom_site_label_1 
_geom_bond_atom_site_label_2 
_geom_bond_distance 
_geom_bond_site_symmetry_2 
_ccdc_geom_bond_type 
C1            C6   1.424       .  A
C1          C146   1.398       .  A
C1          C210   1.480       .  S
C2            C3   1.399       .  A
C2          C145   1.398       .  A
C2            H7   1.084       .  S
C3            C4   1.386   1_554  A
C3          C136   1.461       .  S
C4          C149   1.386   1_556  A
C4            H8   1.087       .  S
C5            C6   1.419       .  A
C5          C148   1.386       .  A
C5          C247   1.477       .  S
C6            H9   1.083       .  S
C10          C11   1.427       .  A
C10          C15   1.396       .  A
C10          C97   1.477       .  S
C11          C12   1.424       .  A
C11          H16   1.083       .  S
C12          C13   1.389       .  A
C12          C69   1.486       .  S
C13          C14   1.384       .  A
C13          H17   1.086       .  S
C14          C15   1.391       .  A
C14         C133   1.457       .  S
C15          H18   1.085       .  S
C19          C20   1.398       .  A
C19          C24   1.425       .  A
C19          C68   1.476       .  S
C20          C21   1.393       .  A
C20          H25   1.085       .  S
C21          C22   1.384       .  A
C21         C121   1.458       .  S
C22          C23   1.388       .  A
C22          H26   1.086       .  S
C23          C24   1.421       .  A
C23         C100   1.483       .  S
C24          H27   1.083       .  S
C28          C29   1.398       .  A
C28         C177   1.423       .  A
C28         C104   1.475       .  S
C29          C30   1.397       .  A
C29          H34   1.085       .  S
C30          C31   1.386       .  A
C30         C124   1.459       .  S
C31          C32   1.387       .  A
C31          H35   1.087       .  S
C32         C177   1.418       .  A
C32         C246   1.477       .  S
C33         C172   1.423       .  A
C33         C176   1.418       .  A
C33          H36   1.083   1_556  S
C37          C38   1.395       .  A
C37          C42   1.427       .  A
C37          C99   1.475       .  S
C38          C39   1.390       .  A
C38          H43   1.085       .  S
C39          C40   1.381       .  A
C39         C112   1.448       .  S
C40          C41   1.387       .  A
C40          H44   1.087       .  S
C41          C42   1.422       .  A
C41          C98   1.479       .  S
C42          H45   1.083       .  S
C46          C47   1.395       .  A
C46          C51   1.427       .  A
C46         C101   1.474       .  S
C47          C48   1.387       .  A
C47          H52   1.086       .  S
C48          C49   1.379       .  A
C48         C109   1.446       .  S
C49          C50   1.388       .  A
C49          H53   1.087       .  S
C50          C51   1.425       .  A
C50          C67   1.483       .  S
C51          H54   1.083       .  S
O55          C66   1.297   1_556  A
O55        Eu235   2.498       .  S
O56          C67   1.284       .  A
O56        Eu378   2.434       .  S
O57          C68   1.297       .  A
O57         Eu63   2.495       .  S
O58          C69   1.286       .  A
O58        Eu639   2.445       .  S
O59          C69   1.302       .  A
O59         Eu93   2.498       .  S
O60          C68   1.289       .  A
O60        Eu380   2.452       .  S
O61          C67   1.303       .  A
O61        Eu639   2.502       .  S
O62          C66   1.290       .  A
O62         Eu63   2.464       .  S
Eu63        O634   2.445   1_455  S
Eu63        O637   2.502   1_455  S
Eu63         O65   2.350       .  S
Eu63         O71   2.342       .  S
Eu63        O649   2.368   1_455  S
Eu63        O640   2.366   1_455  S
O64         Eu93   2.366       .  S
O64        Eu639   2.366       .  S
O64        Eu378   2.369       .  S
O65        Eu235   2.334   1_554  S
O65        Eu380   2.371       .  S
C66         C145   1.480       .  S
H70          O71   0.964       .  S
O71        Eu380   2.351       .  S
O71        Eu954   2.369   1_455  S
H72          O73   0.964       .  S
O73         Eu93   2.344       .  S
O73        Eu639   2.368       .  S
O73        Eu811   2.352   1_554  S
O74          C97   1.297       .  A
O74         Eu90   2.499       .  S
O75          C98   1.283       .  A
O75        Eu379   2.429   1_545  S
O76          C99   1.297       .  A
O76         Eu92   2.494       .  S
O77         C100   1.285       .  A
O77         Eu93   2.439       .  S
O78         C101   1.297       .  A
O78        Eu237   2.495       .  S
O79         C102   1.284       .  A
O79         Eu92   2.429       .  S
O80         C103   1.283       .  A
O80        Eu670   2.424   1_455  S
O81         C104   1.296       .  A
O81        Eu238   2.494       .  S
O82         C103   1.304       .  A
O82         Eu92   2.515       .  S
O83         C536   1.289   1_554  A
O83         Eu93   2.457       .  S
O84         C675   1.289       .  A
O84         Eu90   2.459       .  S
O85         C534   1.302       .  A
O85         Eu91   2.503       .  S
O86         C101   1.288       .  A
O86        Eu667   2.449       .  S
O87         C100   1.303       .  A
O87        Eu378   2.501       .  S
O88          C97   1.288       .  A
O88         Eu94   2.450       .  S
O89         C674   1.302       .  A
O89        Eu238   2.502       .  S
Eu90        O344   2.434   1_545  S
Eu90        O375   2.501   1_545  S
Eu90        O108   2.341       .  S
Eu90         O96   2.346       .  S
Eu90        O352   2.369   1_545  S
Eu90        O935   2.369   1_545  S
Eu91        O199   2.498       .  S
Eu91        O363   2.429       .  S
Eu91        O662   2.449       .  S
Eu91        O209   2.334       .  S
Eu91        O793   2.352   1_455  S
Eu91        O815   2.368   1_455  S
Eu91        O538   2.368       .  S
Eu92        O348   2.452   1_545  S
Eu92        O106   2.365       .  S
Eu92        O353   2.371   1_545  S
Eu92        O359   2.351   1_545  S
Eu92        O672   2.335       .  S
Eu93        O222   2.495   1_554  S
Eu93         O95   2.344   1_554  S
Eu93        O396   2.370       .  S
Eu94        O656   2.424       .  S
Eu94        O225   2.494   1_554  S
Eu94        O233   2.502   1_554  S
Eu94        O108   2.349       .  S
Eu94         O96   2.367       .  S
Eu94        O383   2.331   1_544  S
Eu94        O682   2.367       .  S
O95        Eu811   2.368       .  S
O95        Eu382   2.331   1_556  S
O96        Eu668   2.335       .  S
C98         O665   1.302       .  A
C99         O660   1.289   1_455  A
C102        C176   1.477   1_554  S
C102        O517   1.302   1_544  A
C103        C149   1.477       .  S
C104        O515   1.289   1_545  A
H105        O250   0.966       .  S
O106       Eu523   2.368   1_544  S
O106       Eu670   2.367   1_455  S
O106        H249   0.966   1_554  S
H107        O108   0.964       .  S
O108       Eu381   2.370   1_545  S
C109        C110   1.388       .  A
C109        C690   1.416       .  A
C110        C687   1.383       .  A
C110        H119   1.085       .  S
C111        C112   1.419   1_655  A
C111        C686   1.383       .  A
C111        S115   1.806       .  S
C112        C113   1.391       .  A
C113        C114   1.390       .  A
C113        H120   1.083       .  S
C114        C685   1.416   1_455  A
C114        S116   1.810       .  S
S115        H118   1.405       .  S
S116        H693   1.407       .  S
H117        S692   1.407       .  S
C121        C122   1.412       .  A
C121        C126   1.400       .  A
C122        C411   1.388       .  A
C122        H131   1.084       .  S
C123        C124   1.401       .  A
C123        C410   1.388       .  A
C123        S127   1.805       .  S
C124        C413   1.412   1_545  A
C125        C126   1.386       .  A
C125        C412   1.412       .  A
C125        H132   1.084       .  S
C126        S128   1.804       .  S
S127        H130   1.405       .  S
S128        H129   1.405       .  S
C133        C134   1.411       .  A
C133        C138   1.400       .  A
C134        C135   1.389       .  A
C134        H143   1.084       .  S
C135        C136   1.401       .  A
C135        S139   1.805   1_554  S
C136        C137   1.413       .  A
C137        C138   1.384       .  A
C137        H144   1.084       .  S
C138        S140   1.806       .  S
S139        H142   1.406       .  S
S140        H141   1.406       .  S
C145        C150   1.424       .  A
C146        C147   1.399       .  A
C146        H151   1.084       .  S
C147        C148   1.386       .  A
C147        C280   1.461       .  S
C148        H152   1.087       .  S
C149        C150   1.419       .  A
C150        H153   1.083       .  S
C154        C155   1.427       .  A
C154        C159   1.396       .  A
C154        C241   1.477       .  S
C155        C156   1.424       .  A
C155        H160   1.083       .  S
C156        C157   1.389       .  A
C156        C213   1.486       .  S
C157        C158   1.384       .  A
C157        H161   1.086       .  S
C158        C159   1.391       .  A
C158        C277   1.457       .  S
C159        H162   1.085       .  S
C163        C164   1.398       .  A
C163        C168   1.425       .  A
C163        C212   1.476       .  S
C164        C165   1.393       .  A
C164        H169   1.085       .  S
C165        C166   1.384       .  A
C165        C265   1.458       .  S
C166        C167   1.388       .  A
C166        H170   1.086       .  S
C167        C168   1.421       .  A
C167        C244   1.483       .  S
C168        H171   1.083       .  S
C172        C173   1.398       .  A
C172        C248   1.475       .  S
C173        C174   1.397       .  A
C173        H178   1.085       .  S
C174        C175   1.386       .  A
C174        C268   1.459       .  S
C175        C176   1.387       .  A
C175        H179   1.087       .  S
C177        H180   1.083       .  S
C181        C182   1.395       .  A
C181        C186   1.427       .  A
C181        C243   1.475       .  S
C182        C183   1.390       .  A
C182        H187   1.085       .  S
C183        C184   1.381       .  A
C183        C256   1.448       .  S
C184        C185   1.387       .  A
C184        H188   1.087       .  S
C185        C186   1.422       .  A
C185        C242   1.479       .  S
C186        H189   1.083       .  S
C190        C191   1.395       .  A
C190        C195   1.427       .  A
C190        C245   1.474       .  S
C191        C192   1.387       .  A
C191        H196   1.086       .  S
C192        C193   1.379       .  A
C192        C253   1.446       .  S
C193        C194   1.388       .  A
C193        H197   1.087       .  S
C194        C195   1.425       .  A
C194        C211   1.483       .  S
C195        H198   1.083       .  S
O199        C210   1.297       .  A
O200        C211   1.284       .  A
O200       Eu522   2.434       .  S
O201        C212   1.297       .  A
O201       Eu207   2.495       .  S
O202        C213   1.286       .  A
O202       Eu783   2.445       .  S
O203        C213   1.302       .  A
O203       Eu237   2.498       .  S
O204        C212   1.289       .  A
O204       Eu524   2.452       .  S
O205        C211   1.303       .  A
O205       Eu783   2.502       .  S
O206        C210   1.290       .  A
O206       Eu207   2.464       .  S
Eu207       O778   2.445   1_455  S
Eu207       O781   2.502   1_455  S
Eu207       O793   2.368   1_455  S
Eu207       O209   2.350       .  S
Eu207       O784   2.366   1_455  S
Eu207       O215   2.342       .  S
O208       Eu783   2.366       .  S
O208       Eu237   2.366       .  S
O208       Eu522   2.369       .  S
O209       Eu524   2.371       .  S
H214        O215   0.964       .  S
O215       Eu524   2.351       .  S
O215      Eu1098   2.369   1_455  S
H216        O217   0.964       .  S
O217       Eu783   2.368       .  S
O217       Eu667   2.352       .  S
O217       Eu237   2.344       .  S
O218        C241   1.297       .  A
O218       Eu234   2.499       .  S
O219        C242   1.283       .  A
O219       Eu523   2.429   1_545  S
O220        C243   1.297       .  A
O220       Eu236   2.494       .  S
O221        C244   1.285       .  A
O221       Eu237   2.439       .  S
O222        C245   1.297       .  A
O223        C246   1.284       .  A
O223       Eu236   2.429       .  S
O224        C247   1.283       .  A
O224       Eu814   2.424   1_455  S
O225        C248   1.296       .  A
O226        C247   1.304       .  A
O226       Eu236   2.515       .  S
O227        C392   1.289       .  A
O227       Eu237   2.457       .  S
O228        C819   1.289       .  A
O228       Eu234   2.459       .  S
O229        C390   1.302   1_556  A
O229       Eu235   2.503       .  S
O230        C245   1.288       .  A
O230       Eu811   2.449       .  S
O231        C244   1.303       .  A
O231       Eu522   2.501       .  S
O232        C241   1.288       .  A
O232       Eu238   2.450       .  S
O233        C818   1.302       .  A
Eu234       O488   2.434   1_545  S
Eu234       O519   2.501   1_545  S
Eu234       O496   2.369   1_545  S
Eu234      O1079   2.369   1_545  S
Eu234       O252   2.341       .  S
Eu234       O240   2.346       .  S
Eu235       O507   2.429       .  S
Eu235       O806   2.449       .  S
Eu235       O649   2.352   1_456  S
Eu235       O671   2.368   1_455  S
Eu235       O394   2.368   1_556  S
Eu236       O492   2.452   1_545  S
Eu236       O497   2.371   1_545  S
Eu236       O503   2.351   1_545  S
Eu236       O250   2.365       .  S
Eu236       O816   2.335       .  S
Eu237       O239   2.344       .  S
Eu237       O540   2.370       .  S
Eu238       O800   2.424       .  S
Eu238       O527   2.331   1_545  S
Eu238       O826   2.367       .  S
Eu238       O252   2.349       .  S
Eu238       O240   2.367       .  S
O239       Eu667   2.368       .  S
O239       Eu526   2.331       .  S
O240       Eu812   2.335       .  S
C242        O809   1.302       .  A
C243        O804   1.289   1_455  A
C246        O373   1.302   1_545  A
C248        O371   1.289   1_546  A
O250       Eu379   2.368   1_545  S
O250       Eu814   2.367   1_455  S
H251        O252   0.964       .  S
O252       Eu525   2.370   1_545  S
C253        C254   1.388       .  A
C253        C834   1.416       .  A
C254        C831   1.383       .  A
C254        H263   1.085       .  S
C255        C830   1.383       .  A
C255        C256   1.419   1_655  A
C255        S259   1.806       .  S
C256        C257   1.391       .  A
C257        C258   1.390       .  A
C257        H264   1.083       .  S
C258        C829   1.416   1_455  A
C258        S260   1.810       .  S
S259        H262   1.405       .  S
S260        H837   1.407       .  S
H261        S836   1.407       .  S
C265        C266   1.412       .  A
C265        C270   1.400       .  A
C266        C555   1.388       .  A
C266        H275   1.084       .  S
C267        C554   1.388       .  A
C267        C268   1.401       .  A
C267        S271   1.805       .  S
C268        C557   1.412   1_545  A
C269        C556   1.412       .  A
C269        C270   1.386       .  A
C269        H276   1.084       .  S
C270        S272   1.804       .  S
S271        H274   1.405       .  S
S272        H273   1.405       .  S
C277        C278   1.411       .  A
C277        C282   1.400       .  A
C278        C279   1.389       .  A
C278        H287   1.084       .  S
C279        C280   1.401       .  A
C279        S283   1.805       .  S
C280        C281   1.413       .  A
C281        C282   1.384       .  A
C281        H288   1.084       .  S
C282        S284   1.806       .  S
S283        H286   1.406       .  S
S284        H285   1.406       .  S
C289        C434   1.398       .  A
C289        C294   1.424       .  A
C289        C498   1.480       .  S
C290        C433   1.398       .  A
C290        C291   1.399       .  A
C290        H295   1.084       .  S
C291        C292   1.386   1_554  A
C291        C424   1.461       .  S
C292        C437   1.386   1_556  A
C292        H296   1.087       .  S
C293        C436   1.386       .  A
C293        C294   1.419       .  A
C293        C535   1.477       .  S
C294        H297   1.083       .  S
C298        C299   1.427       .  A
C298        C303   1.396       .  A
C298        C385   1.477       .  S
C299        C300   1.424       .  A
C299        H304   1.083       .  S
C300        C301   1.389       .  A
C300        C357   1.486       .  S
C301        C302   1.384       .  A
C301        H305   1.086       .  S
C302        C303   1.391       .  A
C302        C421   1.457       .  S
C303        H306   1.085       .  S
C307        C308   1.398       .  A
C307        C312   1.425       .  A
C307        C356   1.476       .  S
C308        C309   1.393       .  A
C308        H313   1.085       .  S
C309        C310   1.384       .  A
C309        C409   1.458       .  S
C310        C311   1.388       .  A
C310        H314   1.086       .  S
C311        C312   1.421       .  A
C311        C388   1.483       .  S
C312        H315   1.083       .  S
C316        C317   1.398       .  A
C316        C465   1.423       .  A
C316        C392   1.475       .  S
C317        C318   1.397       .  A
C317        H322   1.085       .  S
C318        C319   1.386       .  A
C318        C412   1.459       .  S
C319        C320   1.387       .  A
C319        H323   1.087       .  S
C320        C465   1.418       .  A
C320        C534   1.477       .  S
C321        C460   1.423       .  A
C321        C464   1.418       .  A
C321        H324   1.083   1_556  S
C325        C326   1.395       .  A
C325        C330   1.427       .  A
C325        C387   1.475       .  S
C326        C327   1.390       .  A
C326        H331   1.085       .  S
C327        C328   1.381       .  A
C327        C400   1.448       .  S
C328        C329   1.387       .  A
C328        H332   1.087       .  S
C329        C330   1.422       .  A
C329        C386   1.479       .  S
C330        H333   1.083       .  S
C334        C335   1.395       .  A
C334        C339   1.427       .  A
C334        C389   1.474       .  S
C335        C336   1.387       .  A
C335        H340   1.086       .  S
C336        C337   1.379       .  A
C336        C397   1.446       .  S
C337        C338   1.388       .  A
C337        H341   1.087       .  S
C338        C339   1.425       .  A
C338        C355   1.483       .  S
C339        H342   1.083       .  S
O343        C354   1.297   1_556  A
O343       Eu523   2.498       .  S
O344        C355   1.284       .  A
O345        C356   1.297       .  A
O345       Eu351   2.495       .  S
O346        C357   1.286       .  A
O346       Eu927   2.445       .  S
O347        C357   1.302       .  A
O347       Eu381   2.498       .  S
O348        C356   1.289       .  A
O349        C355   1.303       .  A
O349       Eu927   2.502       .  S
O350        C354   1.290       .  A
O350       Eu351   2.464       .  S
Eu351       O922   2.445   1_455  S
Eu351       O925   2.502   1_455  S
Eu351       O937   2.368   1_455  S
Eu351       O353   2.350       .  S
Eu351       O928   2.366   1_455  S
Eu351       O359   2.342       .  S
O352       Eu927   2.366       .  S
O352       Eu381   2.366       .  S
O353       Eu523   2.334   1_554  S
C354        C433   1.480       .  S
H358        O359   0.964       .  S
O359       Eu666   2.369   1_465  S
H360        O361   0.964       .  S
O361       Eu927   2.368       .  S
O361      Eu1099   2.352   1_554  S
O361       Eu381   2.344       .  S
O362        C385   1.297       .  A
O362       Eu378   2.499       .  S
O363        C386   1.283       .  A
O364        C387   1.297       .  A
O364       Eu380   2.494       .  S
O365        C388   1.285       .  A
O365       Eu381   2.439       .  S
O366        C389   1.297       .  A
O366       Eu525   2.495       .  S
O367        C390   1.284       .  A
O367       Eu380   2.429       .  S
O368        C391   1.283       .  A
O368       Eu958   2.424   1_455  S
O369        C392   1.296       .  A
O369       Eu526   2.494       .  S
O370        C391   1.304       .  A
O370       Eu380   2.515       .  S
O371       Eu381   2.457       .  S
O372        C963   1.289       .  A
O372       Eu378   2.459       .  S
O373       Eu379   2.503       .  S
O374        C389   1.288       .  A
O374       Eu955   2.449       .  S
O375        C388   1.303       .  A
O376        C385   1.288       .  A
O376       Eu382   2.450       .  S
O377        C962   1.302       .  A
O377       Eu526   2.502       .  S
Eu378       O647   2.369       .  S
Eu378       O396   2.341       .  S
Eu378       O384   2.346       .  S
Eu379       O487   2.498       .  S
Eu379       O950   2.449       .  S
Eu379       O497   2.334       .  S
Eu379      O1081   2.352   1_455  S
Eu379      O1103   2.368   1_455  S
Eu380       O394   2.365       .  S
Eu380       O960   2.335       .  S
Eu381       O510   2.495   1_554  S
Eu381       O383   2.344   1_554  S
Eu382       O944   2.424       .  S
Eu382       O513   2.494   1_554  S
Eu382       O521   2.502   1_554  S
Eu382       O970   2.367       .  S
Eu382       O396   2.349       .  S
Eu382       O384   2.367       .  S
O383      Eu1099   2.368       .  S
O384       Eu956   2.335       .  S
C386        O953   1.302       .  A
C387        O948   1.289   1_455  A
C390        C464   1.477   1_554  S
C391        C437   1.477       .  S
H393        O538   0.966       .  S
O394       Eu958   2.367   1_455  S
O394        H537   0.966   1_554  S
H395        O396   0.964       .  S
C397        C398   1.388       .  A
C397        C978   1.416       .  A
C398        C975   1.383       .  A
C398        H407   1.085       .  S
C399        C974   1.383       .  A
C399        C400   1.419   1_655  A
C399        S403   1.806       .  S
C400        C401   1.391       .  A
C401        C402   1.390       .  A
C401        H408   1.083       .  S
C402        C973   1.416   1_455  A
C402        S404   1.810       .  S
S403        H406   1.405       .  S
S404        H981   1.407       .  S
H405        S980   1.407       .  S
C409        C410   1.412   1_565  A
C409        C414   1.400       .  A
C410        H419   1.084       .  S
C411        C412   1.401       .  A
C411        S415   1.805       .  S
C413        C414   1.386       .  A
C413        H420   1.084       .  S
C414        S416   1.804       .  S
S415        H418   1.405       .  S
S416        H417   1.405       .  S
C421        C422   1.411       .  A
C421        C426   1.400       .  A
C422        C423   1.389       .  A
C422        H431   1.084       .  S
C423        C424   1.401       .  A
C423        S427   1.805   1_554  S
C424        C425   1.413       .  A
C425        C426   1.384       .  A
C425        H432   1.084       .  S
C426        S428   1.806       .  S
S427        H430   1.406       .  S
S428        H429   1.406       .  S
C433        C438   1.424       .  A
C434        C435   1.399       .  A
C434        H439   1.084       .  S
C435        C436   1.386       .  A
C435        C568   1.461       .  S
C436        H440   1.087       .  S
C437        C438   1.419       .  A
C438        H441   1.083       .  S
C442        C443   1.427       .  A
C442        C447   1.396       .  A
C442        C529   1.477       .  S
C443        C444   1.424       .  A
C443        H448   1.083       .  S
C444        C445   1.389       .  A
C444        C501   1.486       .  S
C445        C446   1.384       .  A
C445        H449   1.086       .  S
C446        C447   1.391       .  A
C446        C565   1.457       .  S
C447        H450   1.085       .  S
C451        C452   1.398       .  A
C451        C456   1.425       .  A
C451        C500   1.476       .  S
C452        C453   1.393       .  A
C452        H457   1.085       .  S
C453        C454   1.384       .  A
C453        C553   1.458       .  S
C454        C455   1.388       .  A
C454        H458   1.086       .  S
C455        C456   1.421       .  A
C455        C532   1.483       .  S
C456        H459   1.083       .  S
C460        C461   1.398       .  A
C460        C536   1.475       .  S
C461        C462   1.397       .  A
C461        H466   1.085       .  S
C462        C463   1.386       .  A
C462        C556   1.459       .  S
C463        C464   1.387       .  A
C463        H467   1.087       .  S
C465        H468   1.083       .  S
C469        C470   1.395       .  A
C469        C474   1.427       .  A
C469        C531   1.475       .  S
C470        C471   1.390       .  A
C470        H475   1.085       .  S
C471        C472   1.381       .  A
C471        C544   1.448       .  S
C472        C473   1.387       .  A
C472        H476   1.087       .  S
C473        C474   1.422       .  A
C473        C530   1.479       .  S
C474        H477   1.083       .  S
C478        C479   1.395       .  A
C478        C483   1.427       .  A
C478        C533   1.474       .  S
C479        C480   1.387       .  A
C479        H484   1.086       .  S
C480        C481   1.379       .  A
C480        C541   1.446       .  S
C481        C482   1.388       .  A
C481        H485   1.087       .  S
C482        C483   1.425       .  A
C482        C499   1.483       .  S
C483        H486   1.083       .  S
O487        C498   1.297       .  A
O488        C499   1.284       .  A
O489        C500   1.297       .  A
O489       Eu495   2.495       .  S
O490        C501   1.286       .  A
O490      Eu1071   2.445       .  S
O491        C501   1.302       .  A
O491       Eu525   2.498       .  S
O492        C500   1.289       .  A
O493        C499   1.303       .  A
O493      Eu1071   2.502       .  S
O494        C498   1.290       .  A
O494       Eu495   2.464       .  S
Eu495      O1066   2.445   1_455  S
Eu495      O1069   2.502   1_455  S
Eu495      O1081   2.368   1_455  S
Eu495       O497   2.350       .  S
Eu495      O1072   2.366   1_455  S
Eu495       O503   2.342       .  S
O496      Eu1071   2.366       .  S
O496       Eu525   2.366       .  S
H502        O503   0.964       .  S
O503       Eu810   2.369   1_465  S
H504        O505   0.964       .  S
O505      Eu1071   2.368       .  S
O505       Eu955   2.352       .  S
O505       Eu525   2.344       .  S
O506        C529   1.297       .  A
O506       Eu522   2.499       .  S
O507        C530   1.283       .  A
O508        C531   1.297       .  A
O508       Eu524   2.494       .  S
O509        C532   1.285       .  A
O509       Eu525   2.439       .  S
O510        C533   1.297       .  A
O511        C534   1.284       .  A
O511       Eu524   2.429       .  S
O512        C535   1.283       .  A
O512      Eu1102   2.424   1_455  S
O513        C536   1.296       .  A
O514        C535   1.304       .  A
O514       Eu524   2.515       .  S
O515       Eu525   2.457       .  S
O516       C1107   1.289       .  A
O516       Eu522   2.459       .  S
O517       Eu523   2.503       .  S
O518        C533   1.288       .  A
O518      Eu1099   2.449       .  S
O519        C532   1.303       .  A
O520        C529   1.288       .  A
O520       Eu526   2.450       .  S
O521       C1106   1.302       .  A
Eu522       O791   2.369       .  S
Eu522       O540   2.341       .  S
Eu522       O528   2.346       .  S
Eu523      O1094   2.449       .  S
Eu523       O937   2.352   1_456  S
Eu523       O959   2.368   1_455  S
Eu524       O538   2.365       .  S
Eu524      O1104   2.335       .  S
Eu525       O527   2.344       .  S
Eu526      O1088   2.424       .  S
Eu526      O1114   2.367       .  S
Eu526       O540   2.349       .  S
Eu526       O528   2.367       .  S
O527       Eu955   2.368       .  S
O528      Eu1100   2.335       .  S
C530       O1097   1.302       .  A
C531       O1092   1.289   1_455  A
O538      Eu1102   2.367   1_455  S
H539        O540   0.964       .  S
C541        C542   1.388       .  A
C541       C1122   1.416       .  A
C542       C1119   1.383       .  A
C542        H551   1.085       .  S
C543       C1118   1.383       .  A
C543        C544   1.419   1_655  A
C543        S547   1.806       .  S
C544        C545   1.391       .  A
C545        C546   1.390       .  A
C545        H552   1.083       .  S
C546       C1117   1.416   1_455  A
C546        S548   1.810       .  S
S547        H550   1.405       .  S
S548       H1125   1.407       .  S
H549       S1124   1.407       .  S
C553        C554   1.412   1_565  A
C553        C558   1.400       .  A
C554        H563   1.084       .  S
C555        C556   1.401       .  A
C555        S559   1.805       .  S
C557        C558   1.386       .  A
C557        H564   1.084       .  S
C558        S560   1.804       .  S
S559        H562   1.405       .  S
S560        H561   1.405       .  S
C565        C566   1.411       .  A
C565        C570   1.400       .  A
C566        C567   1.389       .  A
C566        H575   1.084       .  S
C567        C568   1.401       .  A
C567        S571   1.805       .  S
C568        C569   1.413       .  A
C569        C570   1.384       .  A
C569        H576   1.084       .  S
C570        S572   1.806       .  S
S571        H574   1.406       .  S
S572        H573   1.406       .  S
C577        C722   1.398       .  A
C577        C582   1.424       .  A
C577        C786   1.480       .  S
C578        C721   1.398       .  A
C578        C579   1.399       .  A
C578        H583   1.084       .  S
C579        C580   1.386   1_554  A
C579        C712   1.461       .  S
C580        C725   1.386   1_556  A
C580        H584   1.087       .  S
C581        C724   1.386       .  A
C581        C582   1.419       .  A
C581        C823   1.477       .  S
C582        H585   1.083       .  S
C586        C587   1.427       .  A
C586        C591   1.396       .  A
C586        C673   1.477       .  S
C587        C588   1.424       .  A
C587        H592   1.083       .  S
C588        C589   1.389       .  A
C588        C645   1.486       .  S
C589        C590   1.384       .  A
C589        H593   1.086       .  S
C590        C591   1.391       .  A
C590        C709   1.457       .  S
C591        H594   1.085       .  S
C595        C596   1.398       .  A
C595        C600   1.425       .  A
C595        C644   1.476       .  S
C596        C597   1.393       .  A
C596        H601   1.085       .  S
C597        C598   1.384       .  A
C597        C697   1.458       .  S
C598        C599   1.388       .  A
C598        H602   1.086       .  S
C599        C600   1.421       .  A
C599        C676   1.483       .  S
C600        H603   1.083       .  S
C604        C605   1.398       .  A
C604        C753   1.423       .  A
C604        C680   1.475       .  S
C605        C606   1.397       .  A
C605        H610   1.085       .  S
C606        C607   1.386       .  A
C606        C700   1.459       .  S
C607        C608   1.387       .  A
C607        H611   1.087       .  S
C608        C753   1.418       .  A
C608        C822   1.477       .  S
C609        C748   1.423       .  A
C609        C752   1.418       .  A
C609        H612   1.083   1_556  S
C613        C614   1.395       .  A
C613        C618   1.427       .  A
C613        C675   1.475       .  S
C614        C615   1.390       .  A
C614        H619   1.085       .  S
C615        C616   1.381       .  A
C615        C688   1.448       .  S
C616        C617   1.387       .  A
C616        H620   1.087       .  S
C617        C618   1.422       .  A
C617        C674   1.479       .  S
C618        H621   1.083       .  S
C622        C623   1.395       .  A
C622        C627   1.427       .  A
C622        C677   1.474       .  S
C623        C624   1.387       .  A
C623        H628   1.086       .  S
C624        C625   1.379       .  A
C624        C685   1.446       .  S
C625        C626   1.388       .  A
C625        H629   1.087       .  S
C626        C627   1.425       .  A
C626        C643   1.483       .  S
C627        H630   1.083       .  S
O631        C642   1.297   1_556  A
O631       Eu811   2.498       .  S
O632        C643   1.284       .  A
O632       Eu954   2.434       .  S
O633        C644   1.297       .  A
O633       Eu639   2.495       .  S
O634        C645   1.286       .  A
O635        C645   1.302       .  A
O635       Eu669   2.498       .  S
O636        C644   1.289       .  A
O636       Eu956   2.452       .  S
O637        C643   1.303       .  A
O638        C642   1.290       .  A
O638       Eu639   2.464       .  S
Eu639       O641   2.350       .  S
Eu639       O647   2.342       .  S
O640       Eu669   2.366       .  S
O640       Eu954   2.369       .  S
O641       Eu811   2.334   1_554  S
O641       Eu956   2.371       .  S
C642        C721   1.480       .  S
H646        O647   0.964       .  S
O647       Eu956   2.351       .  S
H648        O649   0.964       .  S
O649       Eu669   2.344       .  S
O650        C673   1.297       .  A
O650       Eu666   2.499       .  S
O651        C674   1.283       .  A
O651       Eu955   2.429   1_545  S
O652        C675   1.297       .  A
O652       Eu668   2.494       .  S
O653        C676   1.285       .  A
O653       Eu669   2.439       .  S
O654        C677   1.297       .  A
O654       Eu813   2.495       .  S
O655        C678   1.284       .  A
O655       Eu668   2.429       .  S
O656        C679   1.283       .  A
O657        C680   1.296       .  A
O657       Eu814   2.494       .  S
O658        C679   1.304       .  A
O658       Eu668   2.515       .  S
O659       C1112   1.289   1_554  A
O659       Eu669   2.457       .  S
O660       Eu666   2.459       .  S
O661       C1110   1.302       .  A
O661       Eu667   2.503       .  S
O662        C677   1.288   1_455  A
O663        C676   1.303       .  A
O663       Eu954   2.501       .  S
O664        C673   1.288       .  A
O664       Eu670   2.450       .  S
O665       Eu814   2.502   1_455  S
Eu666       O920   2.434   1_545  S
Eu666       O951   2.501   1_545  S
Eu666       O928   2.369   1_545  S
Eu666       O684   2.341       .  S
Eu666       O672   2.346   1_655  S
Eu667       O775   2.498       .  S
Eu667       O939   2.429       .  S
Eu667       O785   2.334       .  S
Eu667      O1114   2.368       .  S
Eu668       O924   2.452   1_545  S
Eu668       O929   2.371   1_545  S
Eu668       O935   2.351   1_545  S
Eu668       O682   2.365       .  S
Eu669       O798   2.495   1_554  S
Eu669       O671   2.344   1_554  S
Eu669       O972   2.370       .  S
Eu670       O801   2.494   1_554  S
Eu670       O809   2.502   1_654  S
Eu670       O959   2.331   1_544  S
Eu670       O684   2.349       .  S
Eu670       O672   2.367   1_655  S
O671       Eu958   2.331   1_556  S
C678        C752   1.477   1_554  S
C678       O1093   1.302   1_544  A
C679        C725   1.477       .  S
C680       O1091   1.289   1_545  A
H681        O826   0.966       .  S
O682      Eu1099   2.368   1_544  S
O682        H825   0.966   1_554  S
H683        O684   0.964       .  S
O684       Eu957   2.370   1_545  S
C685        C686   1.388       .  A
C686        H695   1.085       .  S
C687        C688   1.419       .  A
C687        S691   1.806       .  S
C688        C689   1.391       .  A
C689        C690   1.390       .  A
C689        H696   1.083       .  S
C690        S692   1.810       .  S
S691        H694   1.405       .  S
C697        C698   1.412       .  A
C697        C702   1.400       .  A
C698        C987   1.388       .  A
C698        H707   1.084       .  S
C699        C986   1.388       .  A
C699        C700   1.401       .  A
C699        S703   1.805       .  S
C700        C989   1.412   1_545  A
C701        C988   1.412       .  A
C701        C702   1.386       .  A
C701        H708   1.084       .  S
C702        S704   1.804       .  S
S703        H706   1.405       .  S
S704        H705   1.405       .  S
C709        C710   1.411       .  A
C709        C714   1.400       .  A
C710        C711   1.389       .  A
C710        H719   1.084       .  S
C711        C712   1.401       .  A
C711        S715   1.805   1_554  S
C712        C713   1.413       .  A
C713        C714   1.384       .  A
C713        H720   1.084       .  S
C714        S716   1.806       .  S
S715        H718   1.406       .  S
S716        H717   1.406       .  S
C721        C726   1.424       .  A
C722        C723   1.399       .  A
C722        H727   1.084       .  S
C723        C724   1.386       .  A
C723        C856   1.461       .  S
C724        H728   1.087       .  S
C725        C726   1.419       .  A
C726        H729   1.083       .  S
C730        C731   1.427       .  A
C730        C735   1.396       .  A
C730        C817   1.477       .  S
C731        C732   1.424       .  A
C731        H736   1.083       .  S
C732        C733   1.389       .  A
C732        C789   1.486       .  S
C733        C734   1.384       .  A
C733        H737   1.086       .  S
C734        C735   1.391       .  A
C734        C853   1.457       .  S
C735        H738   1.085       .  S
C739        C740   1.398       .  A
C739        C744   1.425       .  A
C739        C788   1.476       .  S
C740        C741   1.393       .  A
C740        H745   1.085       .  S
C741        C742   1.384       .  A
C741        C841   1.458       .  S
C742        C743   1.388       .  A
C742        H746   1.086       .  S
C743        C744   1.421       .  A
C743        C820   1.483       .  S
C744        H747   1.083       .  S
C748        C749   1.398       .  A
C748        C824   1.475       .  S
C749        C750   1.397       .  A
C749        H754   1.085       .  S
C750        C751   1.386       .  A
C750        C844   1.459       .  S
C751        C752   1.387       .  A
C751        H755   1.087       .  S
C753        H756   1.083       .  S
C757        C758   1.395       .  A
C757        C762   1.427       .  A
C757        C819   1.475       .  S
C758        C759   1.390       .  A
C758        H763   1.085       .  S
C759        C760   1.381       .  A
C759        C832   1.448       .  S
C760        C761   1.387       .  A
C760        H764   1.087       .  S
C761        C762   1.422       .  A
C761        C818   1.479       .  S
C762        H765   1.083       .  S
C766        C767   1.395       .  A
C766        C771   1.427       .  A
C766        C821   1.474       .  S
C767        C768   1.387       .  A
C767        H772   1.086       .  S
C768        C769   1.379       .  A
C768        C829   1.446       .  S
C769        C770   1.388       .  A
C769        H773   1.087       .  S
C770        C771   1.425       .  A
C770        C787   1.483       .  S
C771        H774   1.083       .  S
O775        C786   1.297       .  A
O776        C787   1.284       .  A
O776      Eu1098   2.434       .  S
O777        C788   1.297       .  A
O777       Eu783   2.495       .  S
O778        C789   1.286       .  A
O779        C789   1.302       .  A
O779       Eu813   2.498       .  S
O780        C788   1.289       .  A
O780      Eu1100   2.452       .  S
O781        C787   1.303       .  A
O782        C786   1.290       .  A
O782       Eu783   2.464       .  S
Eu783       O785   2.350       .  S
Eu783       O791   2.342       .  S
O784       Eu813   2.366       .  S
O784      Eu1098   2.369       .  S
O785      Eu1100   2.371       .  S
H790        O791   0.964       .  S
O791      Eu1100   2.351       .  S
H792        O793   0.964       .  S
O793       Eu813   2.344       .  S
O794        C817   1.297       .  A
O794       Eu810   2.499       .  S
O795        C818   1.283       .  A
O795      Eu1099   2.429   1_545  S
O796        C819   1.297       .  A
O796       Eu812   2.494       .  S
O797        C820   1.285       .  A
O797       Eu813   2.439       .  S
O798        C821   1.297       .  A
O799        C822   1.284       .  A
O799       Eu812   2.429       .  S
O800        C823   1.283       .  A
O801        C824   1.296       .  A
O802        C823   1.304       .  A
O802       Eu812   2.515       .  S
O803        C968   1.289       .  A
O803       Eu813   2.457       .  S
O804       Eu810   2.459       .  S
O805        C966   1.302   1_556  A
O805       Eu811   2.503       .  S
O806        C821   1.288   1_455  A
O807        C820   1.303       .  A
O807      Eu1098   2.501       .  S
O808        C817   1.288       .  A
O808       Eu814   2.450       .  S
Eu810      O1064   2.434   1_545  S
Eu810      O1095   2.501   1_545  S
Eu810      O1072   2.369   1_545  S
Eu810       O828   2.341       .  S
Eu810       O816   2.346   1_655  S
Eu811      O1083   2.429       .  S
Eu811       O970   2.368   1_556  S
Eu812      O1068   2.452   1_545  S
Eu812      O1073   2.371   1_545  S
Eu812      O1079   2.351   1_545  S
Eu812       O826   2.365       .  S
Eu813       O815   2.344       .  S
Eu813      O1116   2.370       .  S
Eu814      O1103   2.331   1_545  S
Eu814       O828   2.349       .  S
Eu814       O816   2.367   1_655  S
O815      Eu1102   2.331       .  S
C822        O949   1.302   1_545  A
C824        O947   1.289   1_546  A
O826       Eu955   2.368   1_545  S
H827        O828   0.964       .  S
O828      Eu1101   2.370   1_545  S
C829        C830   1.388       .  A
C830        H839   1.085       .  S
C831        C832   1.419       .  A
C831        S835   1.806       .  S
C832        C833   1.391       .  A
C833        C834   1.390       .  A
C833        H840   1.083       .  S
C834        S836   1.810       .  S
S835        H838   1.405       .  S
C841        C842   1.412       .  A
C841        C846   1.400       .  A
C842       C1131   1.388       .  A
C842        H851   1.084       .  S
C843       C1130   1.388       .  A
C843        C844   1.401       .  A
C843        S847   1.805       .  S
C844       C1133   1.412   1_545  A
C845       C1132   1.412       .  A
C845        C846   1.386       .  A
C845        H852   1.084       .  S
C846        S848   1.804       .  S
S847        H850   1.405       .  S
S848        H849   1.405       .  S
C853        C854   1.411       .  A
C853        C858   1.400       .  A
C854        C855   1.389       .  A
C854        H863   1.084       .  S
C855        C856   1.401       .  A
C855        S859   1.805       .  S
C856        C857   1.413       .  A
C857        C858   1.384       .  A
C857        H864   1.084       .  S
C858        S860   1.806       .  S
S859        H862   1.406       .  S
S860        H861   1.406       .  S
C865       C1010   1.398       .  A
C865        C870   1.424       .  A
C865       C1074   1.480       .  S
C866       C1009   1.398       .  A
C866        C867   1.399       .  A
C866        H871   1.084       .  S
C867        C868   1.386   1_554  A
C867       C1000   1.461       .  S
C868       C1013   1.386   1_556  A
C868        H872   1.087       .  S
C869       C1012   1.386       .  A
C869        C870   1.419       .  A
C869       C1111   1.477       .  S
C870        H873   1.083       .  S
C874        C875   1.427       .  A
C874        C879   1.396       .  A
C874        C961   1.477       .  S
C875        C876   1.424       .  A
C875        H880   1.083       .  S
C876        C877   1.389       .  A
C876        C933   1.486       .  S
C877        C878   1.384       .  A
C877        H881   1.086       .  S
C878        C879   1.391       .  A
C878        C997   1.457       .  S
C879        H882   1.085       .  S
C883        C884   1.398       .  A
C883        C888   1.425       .  A
C883        C932   1.476       .  S
C884        C885   1.393       .  A
C884        H889   1.085       .  S
C885        C886   1.384       .  A
C885        C985   1.458       .  S
C886        C887   1.388       .  A
C886        H890   1.086       .  S
C887        C888   1.421       .  A
C887        C964   1.483       .  S
C888        H891   1.083       .  S
C892        C893   1.398       .  A
C892       C1041   1.423       .  A
C892        C968   1.475       .  S
C893        C894   1.397       .  A
C893        H898   1.085       .  S
C894        C895   1.386       .  A
C894        C988   1.459       .  S
C895        C896   1.387       .  A
C895        H899   1.087       .  S
C896       C1041   1.418       .  A
C896       C1110   1.477       .  S
C897       C1036   1.423       .  A
C897       C1040   1.418       .  A
C897        H900   1.083   1_556  S
C901        C902   1.395       .  A
C901        C906   1.427       .  A
C901        C963   1.475       .  S
C902        C903   1.390       .  A
C902        H907   1.085       .  S
C903        C904   1.381       .  A
C903        C976   1.448       .  S
C904        C905   1.387       .  A
C904        H908   1.087       .  S
C905        C906   1.422       .  A
C905        C962   1.479       .  S
C906        H909   1.083       .  S
C910        C911   1.395       .  A
C910        C915   1.427       .  A
C910        C965   1.474       .  S
C911        C912   1.387       .  A
C911        H916   1.086       .  S
C912        C913   1.379       .  A
C912        C973   1.446       .  S
C913        C914   1.388       .  A
C913        H917   1.087       .  S
C914        C915   1.425       .  A
C914        C931   1.483       .  S
C915        H918   1.083       .  S
O919        C930   1.297   1_556  A
O919      Eu1099   2.498       .  S
O920        C931   1.284       .  A
O921        C932   1.297       .  A
O921       Eu927   2.495       .  S
O922        C933   1.286       .  A
O923        C933   1.302       .  A
O923       Eu957   2.498       .  S
O924        C932   1.289       .  A
O925        C931   1.303       .  A
O926        C930   1.290       .  A
O926       Eu927   2.464       .  S
Eu927       O929   2.350       .  S
Eu927       O935   2.342       .  S
O928       Eu957   2.366       .  S
O929      Eu1099   2.334   1_554  S
C930       C1009   1.480       .  S
H934        O935   0.964       .  S
H936        O937   0.964       .  S
O937       Eu957   2.344       .  S
O938        C961   1.297       .  A
O938       Eu954   2.499       .  S
O939        C962   1.283       .  A
O940        C963   1.297       .  A
O940       Eu956   2.494       .  S
O941        C964   1.285       .  A
O941       Eu957   2.439       .  S
O942        C965   1.297       .  A
O942      Eu1101   2.495       .  S
O943        C966   1.284       .  A
O943       Eu956   2.429       .  S
O944        C967   1.283       .  A
O945        C968   1.296       .  A
O945      Eu1102   2.494       .  S
O946        C967   1.304       .  A
O946       Eu956   2.515       .  S
O947       Eu957   2.457       .  S
O948       Eu954   2.459       .  S
O949       Eu955   2.503       .  S
O950        C965   1.288   1_455  A
O951        C964   1.303       .  A
O952        C961   1.288       .  A
O952       Eu958   2.450       .  S
O953      Eu1102   2.502   1_455  S
Eu954       O972   2.341       .  S
Eu954       O960   2.346   1_655  S
Eu955      O1063   2.498       .  S
Eu955      O1073   2.334       .  S
Eu956       O970   2.365       .  S
Eu957      O1086   2.495   1_554  S
Eu957       O959   2.344   1_554  S
Eu958      O1089   2.494   1_554  S
Eu958      O1097   2.502   1_654  S
Eu958       O972   2.349       .  S
Eu958       O960   2.367   1_655  S
C966       C1040   1.477   1_554  S
C967       C1013   1.477       .  S
H969       O1114   0.966       .  S
O970       H1113   0.966   1_554  S
H971        O972   0.964       .  S
C973        C974   1.388       .  A
C974        H983   1.085       .  S
C975        C976   1.419       .  A
C975        S979   1.806       .  S
C976        C977   1.391       .  A
C977        C978   1.390       .  A
C977        H984   1.083       .  S
C978        S980   1.810       .  S
S979        H982   1.405       .  S
C985        C986   1.412   1_565  A
C985        C990   1.400       .  A
C986        H995   1.084       .  S
C987        C988   1.401       .  A
C987        S991   1.805       .  S
C989        C990   1.386       .  A
C989        H996   1.084       .  S
C990        S992   1.804       .  S
S991        H994   1.405       .  S
S992        H993   1.405       .  S
C997        C998   1.411       .  A
C997       C1002   1.400       .  A
C998        C999   1.389       .  A
C998       H1007   1.084       .  S
C999       C1000   1.401       .  A
C999       S1003   1.805   1_554  S
C1000      C1001   1.413       .  A
C1001      C1002   1.384       .  A
C1001      H1008   1.084       .  S
C1002      S1004   1.806       .  S
S1003      H1006   1.406       .  S
S1004      H1005   1.406       .  S
C1009      C1014   1.424       .  A
C1010      C1011   1.399       .  A
C1010      H1015   1.084       .  S
C1011      C1012   1.386       .  A
C1011      C1144   1.461       .  S
C1012      H1016   1.087       .  S
C1013      C1014   1.419       .  A
C1014      H1017   1.083       .  S
C1018      C1019   1.427       .  A
C1018      C1023   1.396       .  A
C1018      C1105   1.477       .  S
C1019      C1020   1.424       .  A
C1019      H1024   1.083       .  S
C1020      C1021   1.389       .  A
C1020      C1077   1.486       .  S
C1021      C1022   1.384       .  A
C1021      H1025   1.086       .  S
C1022      C1023   1.391       .  A
C1022      C1141   1.457       .  S
C1023      H1026   1.085       .  S
C1027      C1028   1.398       .  A
C1027      C1032   1.425       .  A
C1027      C1076   1.476       .  S
C1028      C1029   1.393       .  A
C1028      H1033   1.085       .  S
C1029      C1030   1.384       .  A
C1029      C1129   1.458       .  S
C1030      C1031   1.388       .  A
C1030      H1034   1.086       .  S
C1031      C1032   1.421       .  A
C1031      C1108   1.483       .  S
C1032      H1035   1.083       .  S
C1036      C1037   1.398       .  A
C1036      C1112   1.475       .  S
C1037      C1038   1.397       .  A
C1037      H1042   1.085       .  S
C1038      C1039   1.386       .  A
C1038      C1132   1.459       .  S
C1039      C1040   1.387       .  A
C1039      H1043   1.087       .  S
C1041      H1044   1.083       .  S
C1045      C1046   1.395       .  A
C1045      C1050   1.427       .  A
C1045      C1107   1.475       .  S
C1046      C1047   1.390       .  A
C1046      H1051   1.085       .  S
C1047      C1048   1.381       .  A
C1047      C1120   1.448       .  S
C1048      C1049   1.387       .  A
C1048      H1052   1.087       .  S
C1049      C1050   1.422       .  A
C1049      C1106   1.479       .  S
C1050      H1053   1.083       .  S
C1054      C1055   1.395       .  A
C1054      C1059   1.427       .  A
C1054      C1109   1.474       .  S
C1055      C1056   1.387       .  A
C1055      H1060   1.086       .  S
C1056      C1057   1.379       .  A
C1056      C1117   1.446       .  S
C1057      C1058   1.388       .  A
C1057      H1061   1.087       .  S
C1058      C1059   1.425       .  A
C1058      C1075   1.483       .  S
C1059      H1062   1.083       .  S
O1063      C1074   1.297       .  A
O1064      C1075   1.284       .  A
O1065      C1076   1.297       .  A
O1065     Eu1071   2.495       .  S
O1066      C1077   1.286       .  A
O1067      C1077   1.302       .  A
O1067     Eu1101   2.498       .  S
O1068      C1076   1.289       .  A
O1069      C1075   1.303       .  A
O1070      C1074   1.290       .  A
O1070     Eu1071   2.464       .  S
Eu1071     O1073   2.350       .  S
Eu1071     O1079   2.342       .  S
O1072     Eu1101   2.366       .  S
H1078      O1079   0.964       .  S
H1080      O1081   0.964       .  S
O1081     Eu1101   2.344       .  S
O1082      C1105   1.297       .  A
O1082     Eu1098   2.499       .  S
O1083      C1106   1.283       .  A
O1084      C1107   1.297       .  A
O1084     Eu1100   2.494       .  S
O1085      C1108   1.285       .  A
O1085     Eu1101   2.439       .  S
O1086      C1109   1.297       .  A
O1087      C1110   1.284       .  A
O1087     Eu1100   2.429       .  S
O1088      C1111   1.283       .  A
O1089      C1112   1.296       .  A
O1090      C1111   1.304       .  A
O1090     Eu1100   2.515       .  S
O1091     Eu1101   2.457       .  S
O1092     Eu1098   2.459       .  S
O1093     Eu1099   2.503       .  S
O1094      C1109   1.288   1_455  A
O1095      C1108   1.303       .  A
O1096      C1105   1.288       .  A
O1096     Eu1102   2.450       .  S
Eu1098     O1116   2.341       .  S
Eu1098     O1104   2.346   1_655  S
Eu1100     O1114   2.365       .  S
Eu1101     O1103   2.344       .  S
Eu1102     O1116   2.349       .  S
Eu1102     O1104   2.367   1_655  S
H1115      O1116   0.964       .  S
C1117      C1118   1.388       .  A
C1118      H1127   1.085       .  S
C1119      C1120   1.419       .  A
C1119      S1123   1.806       .  S
C1120      C1121   1.391       .  A
C1121      C1122   1.390       .  A
C1121      H1128   1.083       .  S
C1122      S1124   1.810       .  S
S1123      H1126   1.405       .  S
C1129      C1130   1.412   1_565  A
C1129      C1134   1.400       .  A
C1130      H1139   1.084       .  S
C1131      C1132   1.401       .  A
C1131      S1135   1.805       .  S
C1133      C1134   1.386       .  A
C1133      H1140   1.084       .  S
C1134      S1136   1.804       .  S
S1135      H1138   1.405       .  S
S1136      H1137   1.405       .  S
C1141      C1142   1.411       .  A
C1141      C1146   1.400       .  A
C1142      C1143   1.389       .  A
C1142      H1151   1.084       .  S
C1143      C1144   1.401       .  A
C1143      S1147   1.805       .  S
C1144      C1145   1.413       .  A
C1145      C1146   1.384       .  A
C1145      H1152   1.084       .  S
C1146      S1148   1.806       .  S
S1147      H1150   1.406       .  S
S1148      H1149   1.406       .  S
