geometry optimzed in LAMMPS
_audit_creation_date              2020-12-01 
_audit_creation_method            'lammps2cif' 
_symmetry_space_group_name_H-M    'P1' 
_symmetry_Int_Tables_number       1 
_symmetry_cell_setting            triclinic 
loop_ 
_symmetry_equiv_pos_as_xyz 
  x,y,z 
_cell_length_a                    39.33254387 
_cell_length_b                    40.2329875309946 
_cell_length_c                    52.35532421713184 
_cell_angle_alpha                 90.07599067083885 
_cell_angle_beta                  89.54024162927554 
_cell_angle_gamma                 122.10353116925742 
loop_ 
_atom_site_label 
_atom_site_type_symbol 
_atom_site_fract_x 
_atom_site_fract_y 
_atom_site_fract_z 
_atom_site_charge 
Zr1        Zr  0.81784035  0.18453509  0.11180475     2.17500
O2          O  0.80631666  0.22625838  0.08403517    -0.51600
O3          O  0.77285283  0.13410089  0.08194065    -0.74800
O4          O  0.86981889  0.21870583  0.07943389    -0.81600
O5          O  0.74359436  0.18339334  0.16046039    -0.83300
O6          O  0.92771564  0.22359975  0.09071041    -0.79000
O7          O  0.77066039  0.20398993  0.12090928    -0.90600
O8          O  0.76352764  0.07598881  0.09462054    -0.76600
O9          O  0.84629519  0.14538537  0.10906616    -0.86000
O10         O  0.77229282  0.12652063  0.13509678    -0.85700
O11         O  0.88271589  0.22408446  0.13109363    -0.72500
O12         O  0.81579975  0.20490303  0.15438240    -0.84600
Zr13       Zr  0.86379911  0.14540133  0.19505848     2.26400
Zr14       Zr  0.91044165  0.18352648  0.12922255     2.06300
Zr15       Zr  0.77117612  0.14680958  0.17786762     2.10000
Zr16       Zr  0.80147771  0.08778053  0.13298612     1.78800
O17         O  0.75283715  0.17354991  0.21338355    -0.93400
O18         O  0.82810509  0.06215971  0.10180205    -0.41200
O19         O  0.79897656  0.10661322  0.17600594    -0.77900
O20         O  0.86577358  0.12425525  0.15241578    -0.96600
O21         O  0.90869451  0.20371648  0.17193538    -0.89900
O22         O  0.83523108  0.18448043  0.19780951    -0.92700
C23         C  0.75690545  0.09700339  0.07966400     1.01000
C24         C  0.74823322  0.20191086  0.13951022     1.14000
C25         C  0.90725711  0.23188137  0.07598585     1.04800
O26         O  0.92607866  0.15085232  0.09625811    -0.94900
O27         O  0.94567665  0.15713332  0.15056979    -0.90600
O28         O  0.92601344  0.14717389  0.19214471    -0.83700
C29         C  0.94713009  0.14672758  0.17351454     1.11400
O30         O  0.88472748  0.30007355  0.15503595    -0.96800
Zr31       Zr  0.87950340  0.24227223  0.17399988     1.88900
O32         O  0.89980950  0.19297083  0.22869211    -0.73500
O33         O  0.97990916  0.23702280  0.13434298    -0.52700
O34         O  0.94847623  0.29675313  0.16792410    -0.97400
O35         O  0.84736550  0.26826162  0.20017007    -0.54600
O36         O  0.91324743  0.25159218  0.21381778    -0.74000
C37         C  0.91603538  0.23018166  0.23067367     0.98300
O38         O  0.86721804  0.09277466  0.21555943    -0.62800
O39         O  0.70151288  0.09494549  0.17089678    -0.57600
O40         O  0.81264884  0.11005976  0.22765064    -0.94300
O41         O  0.75501715  0.10536080  0.21524707    -0.92700
O42         O  0.73424905  0.03282164  0.14324556    -0.93100
O43         O  0.80144037  0.03157237  0.15019623    -0.91900
C44         C  0.77533002  0.09759337  0.23043952     1.17200
H45         H  0.74552851  0.11333077  0.12819296     0.33100
H46         H  0.87538085  0.10662568  0.15271147     0.44000
H47         H  0.83231223  0.19008086  0.21535436     0.37500
H48         H  0.89912879  0.24866592  0.12218059     0.34000
H49         H  0.83514390  0.07936628  0.08663540     0.25800
H50         H  0.99476007  0.23332511  0.12042685     0.31700
H51         H  0.95229697  0.31635110  0.18091334     0.37600
H52         H  0.71584303  0.04026574  0.13632604     0.32100
H53         H  0.70047975  0.07040188  0.17498205     0.31000
H54         H  0.72403297  0.15408473  0.21662840     0.32600
H55         H  0.84127746  0.25424456  0.21670870     0.31600
H56         H  0.80747302  0.03762242  0.16854845     0.35600
H57         H  0.86942372  0.09822869  0.23412372     0.28300
H58         H  0.80953826  0.21999765  0.06623430     0.32600
H59         H  0.86252756  0.28944421  0.14259795     0.35400
H60         H  0.68638826  0.09789089  0.18498833     0.28000
H61         H  0.84050671  0.06856407  0.21328714     0.40900
H62         H  0.95433936  0.17011898  0.09145641     0.31000
H63         H  0.85430977  0.06876774  0.10875977     0.38600
H64         H  0.82079850  0.25790260  0.19225528     0.30400
H65         H  0.98023883  0.26097400  0.12950152     0.30500
H66         H  0.82917853  0.25336109  0.08697997     0.30800
C67         C  0.03971761  0.37319271  0.34534356     0.80000
N68         N  0.01175563  0.34820311  0.32851167    -0.78400
C69         C  0.01919393  0.32607581  0.31273579     0.82400
N70         N  0.05461005  0.32809351  0.31463695    -0.78300
C71         C  0.08252221  0.35208328  0.33192529     0.82500
N72         N  0.07507783  0.37493930  0.34715727    -0.80000
C73         C  0.64967275  0.97274753  0.34891645     0.80000
N74         N  0.64740048  0.93798509  0.35084246    -0.78400
C75         C  0.66566345  0.92777364  0.33320265     0.82400
N76         N  0.68705089  0.95317367  0.31389800    -0.78300
C77         C  0.68977998  0.98815045  0.31210208     0.82500
N78         N  0.67122385  0.99792305  0.32971675    -0.80000
C79         C  0.99093729  0.36406590  0.00638055     0.80000
N80         N  0.98610188  0.39476672  0.01015305    -0.78400
C81         C  0.00793005  0.42865735  0.99662055     0.82400
N82         N  0.03515776  0.43165726  0.97906433    -0.78300
C83         C  0.04129496  0.40164294  0.97556818     0.82500
N84         N  0.01871546  0.36781547  0.98907130    -0.80000
C85         C  0.62726403  0.01171117  0.00934651     0.80000
N86         N  0.59423261  0.01415756  0.01124578    -0.78400
C87         C  0.56314097  0.99379143  0.99493192     0.82400
N88         N  0.56515105  0.97045942  0.97705000    -0.78300
C89         C  0.59797426  0.96775018  0.97523839     0.82500
N90         N  0.62924411  0.98877574  0.99119787    -0.80000
Zr91       Zr  0.51562259  0.47201153  0.53402681     2.17500
O92         O  0.56039390  0.45568245  0.55472071    -0.51600
O93         O  0.46643580  0.41940050  0.56215231    -0.74800
O94         O  0.55360228  0.51540178  0.56951121    -0.81600
O95         O  0.50722239  0.40921817  0.47505382    -0.83300
O96         O  0.54835891  0.56875864  0.56864039    -0.79000
O97         O  0.53623800  0.43140718  0.51390473    -0.90600
O98         O  0.40572052  0.41142552  0.55512594    -0.76600
O99         O  0.47445249  0.49642459  0.54588633    -0.86000
O100        O  0.45445850  0.43238683  0.51139639    -0.85700
O101        O  0.55289403  0.53937682  0.52003642    -0.72500
O102        O  0.53271460  0.48088741  0.48945357    -0.84600
Zr103      Zr  0.46427491  0.53133775  0.46400622     2.26400
Zr104      Zr  0.51008213  0.56283914  0.53087210     2.06300
Zr105      Zr  0.47154150  0.44151093  0.46694230     2.10000
Zr106      Zr  0.41371726  0.45769904  0.52290307     1.78800
O107        O  0.50012237  0.43675165  0.42668334    -0.93400
O108        O  0.39165876  0.47789256  0.56020337    -0.41200
O109        O  0.42857396  0.46448900  0.47814396    -0.77900
O110        O  0.44743299  0.52434387  0.50888609    -0.96600
O111        O  0.52575512  0.57118290  0.48613537    -0.89900
O112        O  0.50640434  0.50794319  0.45222198    -0.92700
C113        C  0.42845832  0.40214934  0.56618462     1.01000
C114        C  0.52951510  0.41144045  0.49344162     1.14000
C115        C  0.56163351  0.54862485  0.57836814     1.04800
O116        O  0.47378955  0.56971404  0.56628788    -0.94900
O117        O  0.49076113  0.60787926  0.51801568    -0.90600
O118        O  0.46018566  0.58606592  0.47958057    -0.83700
C119        C  0.47193222  0.60950089  0.49871306     1.11400
O120        O  0.62846151  0.54862996  0.48570183    -0.96800
Zr121      Zr  0.56739157  0.54715939  0.47512460     1.88900
O122        O  0.51060289  0.57587655  0.43138370    -0.73500
O123        O  0.56814227  0.62982099  0.53244008    -0.52700
O124        O  0.62037058  0.61261793  0.48833725    -0.97400
O125        O  0.59357859  0.52700796  0.44003096    -0.54600
O126        O  0.57327886  0.59042248  0.44117676    -0.74000
C127        C  0.54875502  0.59490036  0.42797704     0.98300
O128        O  0.41708945  0.54092547  0.44010397    -0.62800
O129        O  0.42196349  0.37124312  0.46862223    -0.57600
O130        O  0.41633389  0.48182359  0.43401852    -0.94300
O131        O  0.42454118  0.42995082  0.43362112    -0.92700
O132        O  0.35473788  0.39458762  0.51178748    -0.93100
O133        O  0.35429654  0.45934942  0.51284057    -0.91900
C134        C  0.40789007  0.44806155  0.42586865     1.17200
H135        H  0.44186466  0.40487274  0.51546686     0.33100
H136        H  0.42983440  0.53361753  0.51277163     0.44000
H137        H  0.51059197  0.50931355  0.43395448     0.37500
H138        H  0.57836375  0.55422384  0.52859669     0.34000
H139        H  0.41139513  0.48302859  0.57366827     0.25800
H140        H  0.56265307  0.64210560  0.54698065     0.31700
H141        H  0.63671593  0.62504561  0.47274824     0.37600
H142        H  0.36524055  0.37762783  0.50770152     0.32100
H143        H  0.39576579  0.36881588  0.46641929     0.31000
H144        H  0.48164224  0.40943894  0.42093024     0.32600
H145        H  0.57651453  0.52340059  0.42522424     0.31600
H146        H  0.36139447  0.47477796  0.49681817     0.35600
H147        H  0.39831726  0.54069665  0.45292887     0.28300
H148        H  0.55390896  0.45310507  0.57319714     0.32600
H149        H  0.64956415  0.56832466  0.47408605     0.35400
H150        H  0.42614027  0.36078188  0.45257670     0.28000
H151        H  0.43283020  0.56821879  0.43359470     0.40900
H152        H  0.49094340  0.59743548  0.57163931     0.31000
H153        H  0.39684264  0.50411363  0.55575293     0.38600
H154        H  0.58614498  0.50006022  0.44460065     0.30400
H155        H  0.59076573  0.62754523  0.53814012     0.30500
H156        H  0.58769651  0.47943413  0.55312569     0.30800
Zr157      Zr  0.60786125  0.80411198  0.86436011     2.17500
O158        O  0.54518748  0.75942189  0.88704386    -0.51600
O159        O  0.60982452  0.85216166  0.89389736    -0.74800
O160        O  0.61326831  0.76480105  0.89826692    -0.81600
O161        O  0.54957420  0.81617859  0.80981386    -0.83300
O162        O  0.67365177  0.77067498  0.89466587    -0.79000
O163        O  0.54327785  0.78832048  0.84874556    -0.90600
O164        O  0.65947274  0.91327471  0.88171203    -0.76600
O165        O  0.67731768  0.84584388  0.87366472    -0.86000
O166        O  0.62956101  0.86338904  0.84131808    -0.85700
O167        O  0.63722432  0.76882518  0.84838898    -0.72500
O168        O  0.59526672  0.78717526  0.81993557    -0.84600
Zr169      Zr  0.71957822  0.85565734  0.79082446     2.26400
Zr170      Zr  0.70712090  0.81128712  0.85727144     2.06300
Zr171      Zr  0.61897606  0.84705122  0.79704095     2.10000
Zr172      Zr  0.69917699  0.90494498  0.85027747     1.78800
O173        O  0.58026440  0.81547190  0.75872375    -0.93400
O174        O  0.74084085  0.93257265  0.88803658    -0.41200
O175        O  0.68862749  0.88954438  0.80598850    -0.77900
O176        O  0.73163677  0.87259084  0.83548376    -0.96600
O177        O  0.69650517  0.79536976  0.81278857    -0.89900
O178        O  0.65030243  0.81411287  0.78072761    -0.92700
C179        C  0.62907440  0.88976306  0.89549204     1.01000
C180        C  0.52911471  0.79605754  0.82928191     1.14000
C181        C  0.63931668  0.75674749  0.90553430     1.04800
O182        O  0.75107006  0.84000852  0.89388997    -0.94900
O183        O  0.77615124  0.83836194  0.84436990    -0.90600
O184        O  0.78319464  0.86592614  0.80518644    -0.83700
C185        C  0.79696305  0.85786260  0.82478160     1.11400
O186        O  0.56704330  0.69340310  0.81783566    -0.96800
Zr187      Zr  0.62680756  0.75457933  0.80380788     1.88900
O188        O  0.71578929  0.80997736  0.75888416    -0.73500
O189        O  0.71547857  0.75565864  0.85401450    -0.52700
O190        O  0.63671973  0.70097265  0.81311049    -0.97400
O191        O  0.57471963  0.73037785  0.77142393    -0.54600
O192        O  0.66191641  0.74919523  0.76781319    -0.74000
C193        C  0.69324384  0.77306107  0.75482415     0.98300
O194        O  0.77610845  0.90024778  0.76325016    -0.62800
O195        O  0.60124005  0.89662228  0.79564357    -0.57600
O196        O  0.71773547  0.90172058  0.76118441    -0.94300
O197        O  0.65716874  0.89597026  0.76465282    -0.92700
O198        O  0.69767246  0.95987647  0.83216800    -0.93100
O199        O  0.76659289  0.96122095  0.84221334    -0.91900
C200        C  0.69239405  0.91118662  0.75494599     1.17200
H201        H  0.61420111  0.87487310  0.84593209     0.33100
H202        H  0.75963611  0.89092342  0.83897944     0.44000
H203        H  0.64660544  0.81007149  0.76252306     0.37500
H204        H  0.62605120  0.74369275  0.85669877     0.34000
H205        H  0.74054629  0.95652372  0.89191161     0.25800
H206        H  0.73085811  0.75747914  0.86939453     0.31700
H207        H  0.66552781  0.71175707  0.80960095     0.37600
H208        H  0.67251722  0.94762947  0.82226742     0.32100
H209        H  0.58083152  0.88763563  0.78206487     0.31000
H210        H  0.59894445  0.82921186  0.74425106     0.32600
H211        H  0.58795044  0.74652973  0.75602951     0.31600
H212        H  0.77191364  0.95895552  0.82397334     0.35600
H213        H  0.79615796  0.92120071  0.77453372     0.28300
H214        H  0.55043449  0.76599059  0.90540265     0.32600
H215        H  0.55973086  0.67486992  0.80343942     0.35400
H216        H  0.58626199  0.89339991  0.81167931     0.28000
H217        H  0.78849676  0.88547760  0.75767419     0.40900
H218        H  0.75805700  0.86755163  0.89423222     0.31000
H219        H  0.72505339  0.91417128  0.90208657     0.38600
H220        H  0.55643513  0.73872471  0.77739354     0.30400
H221        H  0.68831943  0.73233977  0.85712533     0.30500
H222        H  0.54072145  0.73286303  0.88533505     0.30800
C223        C  0.72163980  0.68524629  0.68098244     0.80000
N224        N  0.68949997  0.65883551  0.66706717    -0.78400
C225        C  0.69249682  0.63501274  0.64987625     0.82400
N226        N  0.72868039  0.63861209  0.64672101    -0.78300
C227        C  0.76119815  0.66552406  0.66023076     0.82500
N228        N  0.75725971  0.68845268  0.67732884    -0.80000
C229        C  0.70147375  0.04896866  0.64752156     0.80000
N230        N  0.69841538  0.02241160  0.66477552    -0.78400
C231        C  0.72771534  0.03255510  0.68214758     0.82400
N232        N  0.76043828  0.06969843  0.68238557    -0.78300
C233        C  0.76354402  0.09665711  0.66536883     0.82500
N234        N  0.73402595  0.08624521  0.64803698    -0.80000
C235        C  0.59558347  0.63204564  0.98062147     0.80000
N236        N  0.56098720  0.59600441  0.97989501    -0.78400
C237        C  0.55418046  0.56716544  0.99670552     0.82400
N238        N  0.58223666  0.57470347  0.01457438    -0.78300
C239        C  0.61718823  0.61010630  0.01529315     0.82500
N240        N  0.62352437  0.63857021  0.99848954    -0.80000
Zr241      Zr  0.05304206  0.54475295  0.45268000     2.17500
O242        O  0.10299945  0.56079762  0.41914320    -0.51600
O243        O  0.05950473  0.59666669  0.42431817    -0.74800
O244        O  0.03139339  0.49320944  0.42069281    -0.81600
O245        O  0.12470052  0.58919946  0.50910298    -0.83300
O246        O  0.96572038  0.44611846  0.42552369    -0.79000
O247        O  0.12126446  0.56898433  0.46829453    -0.90600
O248        O  0.01692035  0.61534383  0.43719354    -0.76600
O249        O  0.98658069  0.53096406  0.44799224    -0.86000
O250        O  0.05001467  0.59244082  0.47823033    -0.85700
O251        O  0.01016569  0.47821932  0.46833996    -0.72500
O252        O  0.06425333  0.53419543  0.49588910    -0.84600
Zr253      Zr  0.95101184  0.50017032  0.53199838     2.26400
Zr254      Zr  0.94359451  0.46514673  0.46351526     2.06300
Zr255      Zr  0.06108558  0.58108075  0.52148858     2.10000
Zr256      Zr  0.98291144  0.57731347  0.47449027     1.78800
O257        O  0.10268830  0.59421293  0.55895082    -0.93400
O258        O  0.92940963  0.56403673  0.44508400    -0.41200
O259        O  0.99412162  0.56636856  0.51741812    -0.77900
O260        O  0.93795437  0.51177345  0.48896423    -0.96600
O261        O  0.95581697  0.45399361  0.50646295    -0.89900
O262        O  0.01792528  0.51547226  0.53763169    -0.92700
C263        C  0.04371878  0.61749572  0.42218471     1.01000
C264        C  0.14027853  0.58292258  0.48940185     1.14000
C265        C  0.99995030  0.46041411  0.41434027     1.04800
O266        O  0.90405689  0.46306897  0.42732186    -0.94900
O267        O  0.87583214  0.43627868  0.47972136    -0.90600
O268        O  0.88089380  0.45879191  0.52016578    -0.83700
C269        C  0.86048059  0.43882594  0.50074669     1.11400
O270        O  0.07310840  0.45849947  0.49324579    -0.96800
Zr271      Zr  0.02256507  0.46936467  0.51148802     1.88900
O272        O  0.94807493  0.45302211  0.56299875    -0.73500
O273        O  0.90667847  0.39426499  0.46912846    -0.52700
O274        O  0.99312334  0.40143458  0.49812635    -0.97400
O275        O  0.07612893  0.48404680  0.54124907    -0.54600
O276        O  0.98602657  0.43017699  0.54792161    -0.74000
C277        C  0.96157618  0.43017497  0.56411654     0.98300
O278        O  0.89874446  0.48744488  0.56310449    -0.62800
O279        O  0.09788320  0.65174625  0.51402615    -0.57600
O280        O  0.96941280  0.55521152  0.56021341    -0.94300
O281        O  0.03657068  0.59985883  0.55806048    -0.92700
O282        O  0.01551474  0.64465427  0.48965576    -0.93100
O283        O  0.93650451  0.59457142  0.49158218    -0.91900
C284        C  0.00140191  0.58675288  0.56737989     1.17200
H285        H  0.06948957  0.61874929  0.47260504     0.33100
H286        H  0.91203529  0.50871504  0.48733871     0.44000
H287        H  0.02354180  0.51383866  0.55535577     0.37500
H288        H  0.01419008  0.45924966  0.45993562     0.34000
H289        H  0.93664754  0.59012067  0.43856625     0.25800
H290        H  0.89740129  0.38319644  0.45189493     0.31700
H291        H  0.99631722  0.38799242  0.51288628     0.37600
H292        H  0.01434493  0.64257379  0.50852654     0.32100
H293        H  0.08566184  0.66170445  0.52593919     0.31000
H294        H  0.11673235  0.62293591  0.56149005     0.32600
H295        H  0.09755873  0.51148241  0.53728718     0.31600
H296        H  0.92513190  0.57826933  0.50717637     0.35600
H297        H  0.91150113  0.49304925  0.58009651     0.28300
H298        H  0.09053988  0.56158246  0.40297666     0.32600
H299        H  0.07235350  0.43774829  0.50384634     0.35400
H300        H  0.12499228  0.66170035  0.52093198     0.28000
H301        H  0.89275531  0.50817254  0.56036572     0.40900
H302        H  0.89143521  0.43600294  0.42067285     0.31000
H303        H  0.93340132  0.55114497  0.43025036     0.38600
H304        H  0.06579950  0.48545637  0.55825723     0.30400
H305        H  0.92707912  0.38808996  0.47366061     0.30500
H306        H  0.10501985  0.53739020  0.41745851     0.30800
Zr307      Zr  0.77754199  0.61049852  0.13471475     2.17500
O308        O  0.71426840  0.55098091  0.12344502    -0.51600
O309        O  0.81846004  0.60615465  0.10095650    -0.74800
O310        O  0.74134074  0.62062256  0.10079186    -0.81600
O311        O  0.80502067  0.55437835  0.18044246    -0.83300
O312        O  0.74380489  0.67731118  0.10936674    -0.79000
O313        O  0.77090321  0.54905452  0.14427015    -0.90600
O314        O  0.88292165  0.65550970  0.10812978    -0.76600
O315        O  0.81936377  0.67811188  0.12401017    -0.86000
O316        O  0.84102006  0.63030871  0.15280689    -0.85700
O317        O  0.74598660  0.64084658  0.15494550    -0.72500
O318        O  0.76766340  0.59751950  0.17993404    -0.84600
Zr319      Zr  0.84296107  0.71852373  0.20724302     2.26400
Zr320      Zr  0.78920686  0.70923095  0.14521691     2.06300
Zr321      Zr  0.83210582  0.61989595  0.19781875     2.10000
Zr322      Zr  0.88278673  0.69745646  0.14174331     1.78800
O323        O  0.80168399  0.57908670  0.23562509    -0.93400
O324        O  0.90060945  0.73843536  0.10368271    -0.41200
O325        O  0.87431769  0.68776768  0.18708759    -0.77900
O326        O  0.85458147  0.73115308  0.16186559    -0.96600
O327        O  0.77872574  0.69722737  0.19016843    -0.89900
O328        O  0.80146962  0.65083335  0.21847045    -0.92700
C329        C  0.85641991  0.62443022  0.09638902     1.01000
C330        C  0.78347697  0.53517972  0.16117025     1.14000
C331        C  0.73099386  0.64555352  0.09655653     1.04800
O332        O  0.81840981  0.75569302  0.10990316    -0.94900
O333        O  0.81666550  0.77525814  0.16180363    -0.90600
O334        O  0.85549699  0.78240515  0.19573113    -0.83700
C335        C  0.84154504  0.79583847  0.17949190     1.11400
O336        O  0.67825557  0.56435069  0.19302491    -0.96800
Zr337      Zr  0.73767214  0.62915795  0.19998852     1.88900
O338        O  0.79884128  0.71916902  0.24031258    -0.73500
O339        O  0.73386643  0.71937323  0.15087040    -0.52700
O340        O  0.67667053  0.62894506  0.19186693    -0.97400
O341        O  0.71767034  0.58774136  0.23799623    -0.54600
O342        O  0.73475229  0.67024493  0.23213225    -0.74000
C343        C  0.76074992  0.70079909  0.24423923     0.98300
O344        O  0.89420147  0.77058311  0.23395905    -0.62800
O345        O  0.88441192  0.60468721  0.19703319    -0.57600
O346        O  0.89170222  0.71566522  0.23403352    -0.94300
O347        O  0.88534768  0.65653672  0.22866437    -0.92700
O348        O  0.94080615  0.69252209  0.14974083    -0.93100
O349        O  0.94527615  0.76004011  0.14820266    -0.91900
C350        C  0.90200030  0.69088038  0.23855496     1.17200
H351        H  0.85144579  0.61487776  0.14648376     0.33100
H352        H  0.87302427  0.75860707  0.15812842     0.44000
H353        H  0.80005430  0.64733472  0.23677776     0.37500
H354        H  0.71967822  0.63056212  0.14786404     0.34000
H355        H  0.92625660  0.74193506  0.09767062     0.25800
H356        H  0.73403329  0.72537008  0.16922200     0.31700
H357        H  0.68445093  0.64966172  0.17885782     0.37600
H358        H  0.92983949  0.66764494  0.15934567     0.32100
H359        H  0.87344051  0.58035232  0.20726485     0.31000
H360        H  0.82397931  0.57878995  0.24403271     0.32600
H361        H  0.73271502  0.60558021  0.25229269     0.31600
H362        H  0.94400496  0.76670950  0.16624963     0.35600
H363        H  0.91309025  0.79189840  0.22223170     0.28300
H364        H  0.71544423  0.54785366  0.10475471     0.32600
H365        H  0.68351651  0.55557733  0.17660787     0.35400
H366        H  0.88516136  0.59660972  0.17927305     0.28000
H367        H  0.88021250  0.78122834  0.24345581     0.40900
H368        H  0.84702684  0.76395240  0.10960043     0.31000
H369        H  0.88086402  0.72134972  0.09066130     0.38600
H370        H  0.72964536  0.57164680  0.23564549     0.30400
H371        H  0.74262503  0.74441883  0.14197980     0.30500
H372        H  0.69329514  0.55723323  0.12605555     0.30800
C373        C  0.68385416  0.74092358  0.32131350     0.80000
N374        N  0.66001477  0.71340598  0.33885924    -0.78400
C375        C  0.63799755  0.72018510  0.35575718     0.82400
N376        N  0.64002283  0.75493714  0.35481406    -0.78300
C377        C  0.66402378  0.78289044  0.33735823     0.82500
N378        N  0.68517606  0.77524066  0.32038213    -0.80000
C379        C  0.06519497  0.72070705  0.33929801     0.80000
N380        N  0.03267008  0.71134771  0.32498896    -0.78400
C381        C  0.03438378  0.73693889  0.30735117     0.82400
N382        N  0.06942990  0.77213219  0.30387808    -0.78300
C383        C  0.10225874  0.78169015  0.31805187     0.82500
N384        N  0.09968179  0.75606509  0.33593827    -0.80000
Zr385      Zr  0.51382595  0.03881185  0.54315386     2.17500
O386        O  0.52580834  0.08586364  0.57679799    -0.51600
O387        O  0.55889694  0.03357778  0.57269250    -0.74800
O388        O  0.45804206  0.01698153  0.57293970    -0.81600
O389        O  0.58749283  0.11987977  0.49735548    -0.83300
O390        O  0.40358115  0.95995958  0.56006252    -0.79000
O391        O  0.55474125  0.10888218  0.53540818    -0.90600
O392        O  0.57119819  0.98835805  0.55778209    -0.76600
O393        O  0.48694317  0.97012626  0.54256961    -0.86000
O394        O  0.56191605  0.03221228  0.51949240    -0.85700
O395        O  0.45011565  0.01140756  0.52189306    -0.72500
O396        O  0.51711722  0.06418129  0.50122661    -0.84600
Zr397      Zr  0.47541815  0.96085561  0.45578054     2.26400
Zr398      Zr  0.42394854  0.94230698  0.52070244     2.06300
Zr399      Zr  0.56478129  0.05726961  0.47761301     2.10000
Zr400      Zr  0.53484519  0.96349586  0.51844526     1.78800
O401        O  0.58363742  0.10428850  0.44287512    -0.93400
O402        O  0.50768591  0.90536653  0.54549609    -0.41200
O403        O  0.53902807  0.98856001  0.47639367    -0.77900
O404        O  0.47182081  0.93399549  0.49748542    -0.96600
O405        O  0.42742273  0.96802479  0.47887437    -0.89900
O406        O  0.50211511  0.02942391  0.45576363    -0.92700
C407        C  0.57655955  0.01445239  0.57407154     1.01000
C408        C  0.57852181  0.13140988  0.51773815     1.14000
C409        C  0.42104566  0.98937659  0.57526971     1.04800
O410        O  0.40395600  0.88911763  0.55106982    -0.94900
O411        O  0.39133335  0.88083534  0.49704188    -0.90600
O412        O  0.41951150  0.89408104  0.45733795    -0.83700
C413        C  0.39531980  0.87057248  0.47447507     1.11400
O414        O  0.45358830  0.09085069  0.49960818    -0.96800
Zr415      Zr  0.45486832  0.03670100  0.47983960     1.88900
O416        O  0.43790623  0.97092932  0.42341153    -0.73500
O417        O  0.35526638  0.92469423  0.51315521    -0.52700
O418        O  0.38675925  0.01995496  0.48914506    -0.97400
O419        O  0.48291431  0.09492724  0.45283207    -0.54600
O420        O  0.41875227  0.01037146  0.44054016    -0.74000
C421        C  0.41833737  0.98813385  0.42289186     0.98300
O422        O  0.46944515  0.90962028  0.42755902    -0.62800
O423        O  0.63535279  0.08484129  0.48718613    -0.57600
O424        O  0.53084997  0.98167731  0.42615540    -0.94300
O425        O  0.58676229  0.03586467  0.44140945    -0.92700
O426        O  0.60421934  0.98467246  0.50871984    -0.93100
O427        O  0.53791022  0.91060158  0.49797397    -0.91900
C428        C  0.56846334  0.00761941  0.42551012     1.17200
H429        H  0.58823615  0.04670575  0.52703462     0.33100
H430        H  0.46345621  0.90675518  0.49634105     0.44000
H431        H  0.50576126  0.03963566  0.43859949     0.37500
H432        H  0.43237276  0.01743630  0.53062512     0.34000
H433        H  0.53134836  0.90779317  0.55393069     0.25800
H434        H  0.33830817  0.89998778  0.52281444     0.31700
H435        H  0.36946406  0.99207315  0.48416537     0.37600
H436        H  0.61250052  0.97414078  0.52279928     0.32100
H437        H  0.63769852  0.06181923  0.48996203     0.31000
H438        H  0.61301512  0.12240894  0.44452076     0.32600
H439        H  0.48203174  0.08555187  0.43521510     0.31600
H440        H  0.55661886  0.90687161  0.50830204     0.35600
H441        H  0.49362460  0.90836778  0.43034544     0.28300
H442        H  0.51814816  0.07129205  0.59317175     0.32600
H443        H  0.47702788  0.10320762  0.51111358     0.35400
H444        H  0.64971799  0.09639064  0.47086046     0.28000
H445        H  0.47188059  0.91928463  0.40983811     0.40900
H446        H  0.37454299  0.87652414  0.55297925     0.31000
H447        H  0.49311705  0.90950200  0.55939591     0.38600
H448        H  0.51181248  0.11029958  0.45703752     0.30400
H449        H  0.35244173  0.94449771  0.52252442     0.30500
H450        H  0.50571571  0.09323822  0.57427091     0.30800
Zr451      Zr  0.12717759  0.28564279  0.77710459     2.17500
O452        O  0.07666973  0.23187306  0.75094098    -0.51600
O453        O  0.16900250  0.27716735  0.74586980    -0.74800
O454        O  0.09655087  0.30590837  0.74506854    -0.81600
O455        O  0.11487632  0.21325871  0.82991510    -0.83300
O456        O  0.11670488  0.36974730  0.75118596    -0.79000
O457        O  0.09133395  0.21821045  0.79143435    -0.90600
O458        O  0.23430750  0.31890207  0.75626113    -0.76600
O459        O  0.18233046  0.35053024  0.76947546    -0.86000
O460        O  0.18183618  0.29051445  0.80013209    -0.85700
O461        O  0.10490482  0.32650460  0.79447945    -0.72500
O462        O  0.10727253  0.27321118  0.82142881    -0.84600
Zr463      Zr  0.19655409  0.38576197  0.85400121     2.26400
Zr464      Zr  0.16131856  0.39171264  0.78740397     2.06300
Zr465      Zr  0.16260023  0.27931229  0.84440630     2.10000
Zr466      Zr  0.23657839  0.35580967  0.79311856     1.78800
O467        O  0.12488957  0.24103232  0.88169474    -0.93400
O468        O  0.27491164  0.40683729  0.76130323    -0.41200
O469        O  0.21821637  0.34441215  0.83739370    -0.77900
O470        O  0.21787780  0.39900295  0.80986338    -0.96600
O471        O  0.14162077  0.38041219  0.83153277    -0.89900
O472        O  0.14184464  0.32085092  0.86176484    -0.92700
C473        C  0.20680508  0.29181412  0.74249024     1.01000
C474        C  0.09215028  0.19854644  0.81038050     1.14000
C475        C  0.09622262  0.33687035  0.73958929     1.04800
O476        O  0.20354425  0.42956829  0.75126314    -0.94900
O477        O  0.19967814  0.45750077  0.80390609    -0.90600
O478        O  0.22329908  0.45315172  0.84234030    -0.83700
C479        C  0.22066761  0.47260635  0.82399588     1.11400
O480        O  0.02157739  0.26189809  0.82444555    -0.96800
Zr481      Zr  0.08711926  0.31522229  0.83863144     1.88900
O482        O  0.15459696  0.39196428  0.88615625    -0.73500
O483        O  0.12450264  0.42493015  0.78791969    -0.52700
O484        O  0.04714429  0.34228514  0.82594216    -0.97400
O485        O  0.04963327  0.26877389  0.87303018    -0.54600
O486        O  0.08956047  0.35516051  0.87384117    -0.74000
C487        C  0.11717035  0.37971328  0.88873929     0.98300
O488        O  0.25144589  0.43278192  0.88119569    -0.62800
O489        O  0.20234912  0.24916152  0.84176944    -0.57600
O490        O  0.22980133  0.36804209  0.88502306    -0.94300
O491        O  0.20727099  0.30324084  0.88119683    -0.92700
O492        O  0.27783579  0.32874781  0.80203869    -0.93100
O493        O  0.30321450  0.40501961  0.80823940    -0.91900
C494        C  0.22888676  0.33696927  0.89181509     1.17200
H495        H  0.18787919  0.27146037  0.79420255     0.33100
H496        H  0.24136480  0.42491439  0.80746557     0.44000
H497        H  0.13597560  0.31604691  0.87981553     0.37500
H498        H  0.08076984  0.32196990  0.78654139     0.34000
H499        H  0.29255530  0.39927447  0.75304218     0.25800
H500        H  0.12768229  0.43579536  0.77049113     0.31700
H501        H  0.02540864  0.33251253  0.83890056     0.37600
H502        H  0.27731048  0.32640254  0.82088267     0.32100
H503        H  0.19444406  0.23216328  0.85710078     0.31000
H504        H  0.13755028  0.22626676  0.88646511     0.32600
H505        H  0.06220055  0.28298882  0.88905168     0.31600
H506        H  0.29898251  0.40930436  0.82631772     0.35600
H507        H  0.27444050  0.44923288  0.86958757     0.28300
H508        H  0.08557430  0.23931558  0.73297665     0.32600
H509        H  0.00161152  0.26295002  0.83547758     0.35400
H510        H  0.19110085  0.23058330  0.82730980     0.28000
H511        H  0.24335328  0.45056336  0.88803777     0.40900
H512        H  0.18876608  0.44013889  0.74284878     0.31000
H513        H  0.25526198  0.40249950  0.74797694     0.38600
H514        H  0.05723721  0.24899838  0.87173408     0.30400
H515        H  0.09588552  0.40358854  0.78917708     0.30500
H516        H  0.05191777  0.23251186  0.75261910     0.30800
C517        C  0.28492684  0.24848289  0.66778912     0.80000
N518        N  0.30940289  0.27756370  0.65116415    -0.78400
C519        C  0.33309983  0.27259337  0.63461158     0.82400
N520        N  0.33236551  0.23848652  0.63469169    -0.78300
C521        C  0.30817523  0.20926591  0.65129463     0.82500
N522        N  0.28428302  0.21437750  0.66764324    -0.80000
C523        C  0.96623381  0.30363998  0.67370246     0.80000
N524        N  0.96614267  0.32871553  0.65643173    -0.78400
C525        C  0.93377552  0.31667279  0.64122810     0.82400
N526        N  0.90152266  0.27944961  0.64353281    -0.78300
C527        C  0.90180197  0.25416232  0.66052573     0.82500
N528        N  0.93414746  0.26637876  0.67563318    -0.80000
Zr529      Zr  0.27931444  0.15398463  0.20741525     2.17500
O530        O  0.23187829  0.12351410  0.24296971    -0.51600
O531        O  0.27377864  0.20169278  0.23320612    -0.74800
O532        O  0.30210889  0.12859206  0.24108511    -0.81600
O533        O  0.20260642  0.12051075  0.15407755    -0.83300
O534        O  0.36894223  0.15356197  0.23664966    -0.79000
O535        O  0.21021102  0.10607116  0.19461588    -0.90600
O536        O  0.31601722  0.26307840  0.21799476    -0.76600
O537        O  0.34595071  0.20966030  0.20999723    -0.86000
O538        O  0.28120967  0.20194207  0.17945926    -0.85700
O539        O  0.32148267  0.13049630  0.19313904    -0.72500
O540        O  0.26477820  0.12639165  0.16540939    -0.84600
Zr541      Zr  0.37641853  0.20631444  0.12571809     2.26400
Zr542      Zr  0.38812074  0.18709738  0.19552223     2.06300
Zr543      Zr  0.26694901  0.17398063  0.13744956     2.10000
Zr544      Zr  0.34864625  0.25683913  0.18108173     1.78800
O545        O  0.22408002  0.13746485  0.10157499    -0.93400
O546        O  0.40187050  0.30367506  0.20912893    -0.41200
O547        O  0.33406465  0.22884915  0.13957591    -0.77900
O548        O  0.39296850  0.23649323  0.16733342    -0.96600
O549        O  0.37352496  0.15850288  0.15372788    -0.89900
O550        O  0.30932912  0.15148773  0.12240852    -0.92700
C551        C  0.28969181  0.23898537  0.23387515     1.01000
C552        C  0.18881122  0.09965893  0.17461962     1.14000
C553        C  0.33504575  0.13212312  0.24813678     1.04800
O554        O  0.43402258  0.23792968  0.22497925    -0.94900
O555        O  0.45405061  0.22064778  0.17622950    -0.90600
O556        O  0.44662722  0.23377592  0.13511376    -0.83700
C557        C  0.46770681  0.23498816  0.15400504     1.11400
O558        O  0.25769256  0.04238969  0.17178797    -0.96800
Zr559      Zr  0.30657152  0.10398815  0.15099621     1.88900
O560        O  0.38046745  0.15994993  0.09755777    -0.73500
O561        O  0.41893789  0.14848066  0.19948719    -0.52700
O562        O  0.33689895  0.06796160  0.16520694    -0.97400
O563        O  0.25121824  0.05921096  0.12347544    -0.54600
O564        O  0.34200365  0.09917181  0.11493971    -0.74000
C565        C  0.36705953  0.12307211  0.09831396     0.98300
O566        O  0.42113166  0.25266574  0.09310115    -0.62800
O567        O  0.23072956  0.20762876  0.14137024    -0.57600
O568        O  0.35719802  0.23690421  0.09390239    -0.94300
O569        O  0.29182160  0.21748249  0.10010221    -0.92700
O570        O  0.31697702  0.29003292  0.16388989    -0.93100
O571        O  0.39696410  0.31934405  0.16105372    -0.91900
C572        C  0.32576106  0.23731474  0.08831026     1.17200
H573        H  0.26201365  0.20874409  0.18456563     0.33100
H574        H  0.41962102  0.25974024  0.16752847     0.44000
H575        H  0.30313790  0.14195042  0.10508337     0.37500
H576        H  0.31848079  0.10884202  0.20297029     0.34000
H577        H  0.39285250  0.32103952  0.21534991     0.25800
H578        H  0.43302493  0.15628053  0.21605927     0.31700
H579        H  0.32506683  0.04443972  0.15417477     0.37600
H580        H  0.31078673  0.28119331  0.14593486     0.32100
H581        H  0.23846869  0.22463410  0.12605659     0.31000
H582        H  0.24057295  0.13142560  0.09046536     0.32600
H583        H  0.26194090  0.06667737  0.10584503     0.31600
H584        H  0.40713989  0.31221362  0.14599292     0.35600
H585        H  0.43985021  0.27725127  0.10227322     0.28300
H586        H  0.24559656  0.13932525  0.25829077     0.32600
H587        H  0.24918926  0.05029894  0.18729990     0.35400
H588        H  0.20225346  0.18694211  0.13857859     0.28000
H589        H  0.43786279  0.24258490  0.08697015     0.40900
H590        H  0.41708287  0.23580995  0.23974089     0.31000
H591        H  0.40002302  0.28814387  0.22431240     0.38600
H592        H  0.23172149  0.06756627  0.12506249     0.30400
H593        H  0.39621236  0.12117530  0.20214129     0.30500
H594        H  0.22921072  0.09800211  0.24619232     0.30800
C595        C  0.25876442  0.31295211  0.31747965     0.80000
N596        N  0.28828450  0.33425662  0.33459311    -0.78400
C597        C  0.28516915  0.35835812  0.35132907     0.82400
N598        N  0.25226436  0.36116373  0.35074089    -0.78300
C599        C  0.22296812  0.34068183  0.33330993     0.82500
N600        N  0.22642431  0.31662894  0.31678920    -0.80000
C601        C  0.29650099  0.00005006  0.31072207     0.80000
N602        N  0.26081121  0.96628800  0.30603436    -0.78400
C603        C  0.25004042  0.93312754  0.31949443     0.82400
N604        N  0.27526910  0.93409976  0.33744996    -0.78300
C605        C  0.31057781  0.96779133  0.34238624     0.82500
N606        N  0.32117278  0.00066386  0.32888015    -0.80000
C607        C  0.35898411  0.35461024  0.01214042     0.80000
N608        N  0.39345383  0.39057161  0.01293482    -0.78400
C609        C  0.40211568  0.41746151  0.99426027     0.82400
N610        N  0.37641687  0.40774910  0.97444213    -0.78300
C611        C  0.34233385  0.37153592  0.97300298     0.82500
N612        N  0.33378220  0.34516957  0.99204191    -0.80000
Zr613      Zr  0.17016195  0.80282769  0.88610593     2.17500
O614        O  0.20881994  0.78574491  0.91331708    -0.51600
O615        O  0.12023931  0.75909697  0.91806391    -0.74800
O616        O  0.21590842  0.85417817  0.91598693    -0.81600
O617        O  0.15538012  0.72850975  0.83444155    -0.83300
O618        O  0.21731786  0.91040541  0.90818634    -0.79000
O619        O  0.18919410  0.75798851  0.87086217    -0.90600
O620        O  0.06030038  0.75097378  0.90869083    -0.76600
O621        O  0.13386328  0.83396676  0.89342379    -0.86000
O622        O  0.10669092  0.76108940  0.86615587    -0.85700
O623        O  0.21014379  0.86577676  0.86531679    -0.72500
O624        O  0.18297532  0.80061814  0.84139576    -0.84600
Zr625      Zr  0.12211711  0.85321960  0.80855421     2.26400
Zr626      Zr  0.17276287  0.89640142  0.87242775     2.06300
Zr627      Zr  0.11951933  0.75933872  0.82166928     2.10000
Zr628      Zr  0.07088552  0.79309867  0.87284104     1.78800
O629        O  0.13707667  0.72720121  0.78940606    -0.93400
O630        O  0.05286153  0.82063449  0.90806943    -0.41200
O631        O  0.08187518  0.78961672  0.82799936    -0.77900
O632        O  0.10844210  0.85621792  0.85303857    -0.96600
O633        O  0.18573945  0.89434444  0.82783121    -0.89900
O634        O  0.15798949  0.82175987  0.80096017    -0.92700
C635        C  0.08233900  0.74302733  0.92194886     1.01000
C636        C  0.18032428  0.73434286  0.85209891     1.14000
C637        C  0.22887573  0.89046361  0.92023213     1.04800
O638        O  0.14000912  0.90899805  0.90742504    -0.94900
O639        O  0.15490785  0.94008018  0.85389022    -0.90600
O640        O  0.12558184  0.91420534  0.81561877    -0.83700
C641        C  0.13743379  0.94005904  0.83330486     1.11400
O642        O  0.28128267  0.86262842  0.83153574    -0.96800
Zr643      Zr  0.22123778  0.86261087  0.82058279     1.88900
O644        O  0.16728834  0.89127958  0.77362101    -0.73500
O645        O  0.22927517  0.96411923  0.86995159    -0.52700
O646        O  0.27838602  0.92868600  0.82794564    -0.97400
O647        O  0.24263801  0.83090857  0.79038026    -0.54600
O648        O  0.22660517  0.89649599  0.78101397    -0.74000
C649        C  0.20372515  0.90327093  0.76762268     0.98300
O650        O  0.06563848  0.85716435  0.79386546    -0.62800
O651        O  0.05810197  0.69637219  0.83034296    -0.57600
O652        O  0.08699338  0.80827410  0.77362152    -0.94300
O653        O  0.08438231  0.75174312  0.78196235    -0.92700
O654        O  0.00907771  0.73077270  0.86430859    -0.93100
O655        O  0.01539097  0.80057257  0.86137607    -0.91900
C656        C  0.07644315  0.77296560  0.76805111     1.17200
H657        H  0.09289018  0.73465303  0.87280979     0.33100
H658        H  0.09280054  0.86813925  0.85505481     0.44000
H659        H  0.16105732  0.81885370  0.78291734     0.37500
H660        H  0.23668307  0.88082691  0.87236121     0.34000
H661        H  0.02655841  0.79864504  0.91426415     0.25800
H662        H  0.23033689  0.97553743  0.88691387     0.31700
H663        H  0.26893110  0.94620111  0.82308034     0.37600
H664        H  0.99257092  0.72499015  0.87998834     0.32100
H665        H  0.04938056  0.68373549  0.81341264     0.31000
H666        H  0.11730096  0.69877740  0.79170902     0.32600
H667        H  0.25290117  0.84843331  0.77526750     0.31600
H668        H  0.01823673  0.80506724  0.84268060     0.35600
H669        H  0.07064247  0.86353412  0.77542207     0.28300
H670        H  0.20429238  0.79078301  0.93115425     0.32600
H671        H  0.27157458  0.83993119  0.84321873     0.35400
H672        H  0.06711495  0.68080202  0.83935794     0.28000
H673        H  0.04200241  0.82998567  0.79463080     0.40900
H674        H  0.11657921  0.90783635  0.89957917     0.31000
H675        H  0.07173359  0.82480835  0.92191295     0.38600
H676        H  0.21754707  0.80723867  0.78452652     0.30400
H677        H  0.25342965  0.96239871  0.86917444     0.30500
H678        H  0.23746783  0.80537855  0.90965334     0.30800
C679        C  0.96274975  0.66781040  0.64075552     0.80000
N680        N  0.92582263  0.66256244  0.63975243    -0.78400
C681        C  0.91328221  0.67712251  0.65832141     0.82400
N682        N  0.93796458  0.69725791  0.67803228    -0.78300
C683        C  0.97502671  0.70269853  0.67931732     0.82500
N684        N  0.98704051  0.68746650  0.66070324    -0.80000
C685        C  0.32522972  0.02167701  0.64414160     0.80000
N686        N  0.30373027  0.99585386  0.66321379    -0.78400
C687        C  0.28073540  0.00248129  0.67925926     0.82400
N688        N  0.27937512  0.03526734  0.67634139    -0.78300
C689        C  0.30009807  0.06105051  0.65711976     0.82500
N690        N  0.32318989  0.05417298  0.64118728    -0.80000
C691        C  0.98742180  0.61292809  0.99231466     0.80000
N692        N  0.99260751  0.58211689  0.99181775    -0.78400
C693        C  0.97104401  0.55065155  0.00757672     0.82400
N694        N  0.94416135  0.55047276  0.02437583    -0.78300
C695        C  0.93897120  0.58143779  0.02515443     0.82500
N696        N  0.96088269  0.61225991  0.00920099    -0.80000
C697        C  0.35656658  0.98167327  0.99203110     0.80000
N698        N  0.38953361  0.97892871  0.99141128    -0.78400
C699        C  0.42118564  0.00147998  0.00691615     0.82400
N700        N  0.42014175  0.02768091  0.02266704    -0.78300
C701        C  0.38783769  0.03142184  0.02312596     0.82500
N702        N  0.35602584  0.00825479  0.00783296    -0.80000
C703        C  0.97995874  0.02697069  0.17458610     0.80000
N704        N  0.94734186  0.98991662  0.17472759    -0.78400
C705        C  0.95213017  0.95907329  0.17216247     0.82400
N706        N  0.98959602  0.96523646  0.16993435    -0.78300
C707        C  0.02190585  0.00252497  0.16934039     0.82500
N708        N  0.01687182  0.03300384  0.17173737    -0.80000
C709        C  0.62685164  0.34703777  0.50259887     0.80000
N710        N  0.60918216  0.30811966  0.50716731    -0.78400
C711        C  0.63139931  0.29291335  0.51344601     0.82400
N712        N  0.67157749  0.31667082  0.51549914    -0.78300
C713        C  0.68951771  0.35556756  0.51141451     0.82500
N714        N  0.66722600  0.37070899  0.50470561    -0.80000
C715        C  0.37459709  0.67173808  0.49352057     0.80000
N716        N  0.38307198  0.70708512  0.48474156    -0.78400
C717        C  0.35297247  0.71286583  0.47932807     0.82400
N718        N  0.31466586  0.68328973  0.48297257    -0.78300
C719        C  0.30591901  0.64813903  0.49176932     0.82500
N720        N  0.33579698  0.64197077  0.49700979    -0.80000
C721        C  0.03329834  0.99262870  0.82132458     0.80000
N722        N  0.99475031  0.96232981  0.82426882    -0.78400
C723        C  0.96425018  0.96820355  0.82036677     0.82400
N724        N  0.97236564  0.00428559  0.81352586    -0.78300
C725        C  0.01095332  0.03406474  0.80997025     0.82500
N726        N  0.04123152  0.02816655  0.81398756    -0.80000
C727        C  0.29377791  0.68909259  0.83857385     0.80000
N728        N  0.33352260  0.71550139  0.83498879    -0.78400
C729        C  0.35889216  0.70260408  0.83170911     0.82400
N730        N  0.34457535  0.66370098  0.83249160    -0.78300
C731        C  0.30507102  0.63775304  0.83650409     0.82500
N732        N  0.27972764  0.65039111  0.83932859    -0.80000
C733        C  0.69261463  0.30846649  0.13650117     0.80000
N734        N  0.65270236  0.29374037  0.13763772    -0.78400
C735        C  0.63833807  0.31747053  0.14079787     0.82400
N736        N  0.66443030  0.35665298  0.14258995    -0.78300
C737        C  0.70449881  0.37181840  0.14149894     0.82500
N738        N  0.71863975  0.34772784  0.13891174    -0.80000
C739        C  0.26217602  0.95855232  0.74553368    -0.06000
C740        C  0.22168572  0.92780359  0.74427242    -0.00100
C741        C  0.20065041  0.92095202  0.72093207    -0.08700
C742        C  0.22091767  0.94608947  0.69997173    -0.06100
C743        C  0.26121785  0.97674166  0.70157021    -0.00100
C744        C  0.28242864  0.98294803  0.72448419    -0.08600
C745        C  0.32655489  0.01493761  0.72645915     0.61800
H746        H  0.27805925  0.96334760  0.76329366     0.12500
H747        H  0.20552032  0.94196407  0.68208356     0.12500
C748        C  0.15771538  0.88665072  0.71771252     0.62000
F749        F  0.34094242  0.01784856  0.75092948    -0.23200
F750        F  0.33220889  0.05086867  0.71998093    -0.20500
F751        F  0.34877099  0.00667771  0.70999401    -0.20200
F752        F  0.15465555  0.85214072  0.72511173    -0.20200
F753        F  0.14539273  0.88239934  0.69257765    -0.20500
F754        F  0.13193479  0.89242963  0.73239534    -0.23200
C755        C  0.02922620  0.77048008  0.73575021    -0.06000
C756        C  0.05236890  0.75552821  0.74440960    -0.00100
C757        C  0.05142183  0.72468700  0.73042604    -0.08700
C758        C  0.02552533  0.70857025  0.70953444    -0.06100
C759        C  0.00141208  0.72253875  0.70152757    -0.00100
C760        C  0.00394267  0.75481086  0.71443415    -0.08600
C761        C  0.98065018  0.77317088  0.70587767     0.61800
H762        H  0.03022312  0.79416696  0.74625943     0.12500
H763        H  0.02331296  0.68395873  0.69948505     0.12500
C764        C  0.07740034  0.70844053  0.73695902     0.62000
F765        F  0.99392644  0.80871056  0.71782464    -0.23200
F766        F  0.94040042  0.74833917  0.71178971    -0.20500
F767        F  0.98530448  0.78011190  0.67982506    -0.20200
F768        F  0.06265383  0.68574862  0.75882599    -0.20200
F769        F  0.11666411  0.73885856  0.74050157    -0.20500
F770        F  0.07766316  0.68501724  0.71763444    -0.23200
C771        C  0.25169276  0.91470056  0.96424702    -0.06000
C772        C  0.26143484  0.91164617  0.93891607    -0.00100
C773        C  0.30221145  0.92991698  0.93142417    -0.08700
C774        C  0.33215529  0.95262328  0.94936267    -0.06100
C775        C  0.32265389  0.95701649  0.97455419    -0.00100
C776        C  0.28176092  0.93660224  0.98246303    -0.08600
C777        C  0.26987361  0.93643872  0.01013236     0.61800
H778        H  0.22027379  0.89987752  0.96961273     0.12500
H779        H  0.36346532  0.96766088  0.94370094     0.12500
C780        C  0.31399305  0.92566205  0.90448565     0.62000
F781        F  0.22950342  0.90925070  0.01439009    -0.23200
F782        F  0.27735065  0.97300482  0.01670185    -0.20500
F783        F  0.29153969  0.92681583  0.02584488    -0.20200
F784        F  0.30076369  0.94228358  0.88729211    -0.20200
F785        F  0.29692987  0.88636417  0.89879779    -0.20500
F786        F  0.35516311  0.94401395  0.90153770    -0.23200
C787        C  0.02434391  0.70493093  0.95128735    -0.06000
C788        C  0.06132129  0.71198912  0.94207557    -0.00100
C789        C  0.07380073  0.68620627  0.94976840    -0.08700
C790        C  0.04933678  0.65530136  0.96678885    -0.06100
C791        C  0.01185316  0.64764346  0.97531362    -0.00100
C792        C  0.99863881  0.67253951  0.96689068    -0.08600
C793        C  0.95684906  0.66426307  0.97279235     0.61800
H794        H  0.01488564  0.72456339  0.94541101     0.12500
H795        H  0.05918117  0.63622828  0.97324431     0.12500
C796        C  0.11138501  0.68946355  0.93908065     0.62000
F797        F  0.94815965  0.68778986  0.95856939    -0.23200
F798        F  0.95384711  0.67138295  0.99829369    -0.20500
F799        F  0.92830049  0.62566878  0.96696920    -0.20200
F800        F  0.14486636  0.72394310  0.94725174    -0.20200
F801        F  0.10983528  0.68886526  0.91272147    -0.20500
F802        F  0.11525190  0.65874025  0.94683643    -0.23200
C803        C  0.22809383  0.72887832  0.82555979    -0.06000
C804        C  0.20535220  0.71798241  0.84823651    -0.00100
C805        C  0.21080433  0.69638558  0.86720741    -0.08700
C806        C  0.24086194  0.68825221  0.86342109    -0.06100
C807        C  0.26517225  0.70125252  0.84148585    -0.00100
C808        C  0.25823441  0.72079411  0.82179028    -0.08600
C809        C  0.28246579  0.73308660  0.79708047     0.61800
H810        H  0.22331272  0.74544994  0.81128725     0.12500
H811        H  0.24601854  0.67202485  0.87774753     0.12500
C812        C  0.18451764  0.68119406  0.89088089     0.62000
F813        F  0.26664431  0.74633639  0.77913377    -0.23200
F814        F  0.28273127  0.70163066  0.78659677    -0.20500
F815        F  0.32144175  0.76306688  0.80197749    -0.20200
F816        F  0.14468272  0.66245636  0.88391475    -0.20200
F817        F  0.19381617  0.71200663  0.90699629    -0.20500
F818        F  0.18974895  0.65452175  0.90417199    -0.23200
C819        C  0.10705223  0.97354075  0.85280208    -0.06000
C820        C  0.12488932  0.96837283  0.83104924    -0.00100
C821        C  0.11885600  0.97982032  0.80682446    -0.08700
C822        C  0.08852929  0.98779065  0.80433956    -0.06100
C823        C  0.06665182  0.98731831  0.82565397    -0.00100
C824        C  0.07803872  0.98348862  0.85045159    -0.08600
C825        C  0.05926062  0.98940113  0.87407155     0.61800
H826        H  0.11296217  0.96606804  0.87142057     0.12500
H827        H  0.08142443  0.99377593  0.78558127     0.12500
C828        C  0.14302660  0.98304444  0.78325929     0.62000
F829        F  0.07657100  0.98676055  0.89628732    -0.23200
F830        F  0.01870889  0.96124549  0.87507965    -0.20500
F831        F  0.06451851  0.02623115  0.87322306    -0.20200
F832        F  0.11905012  0.95305134  0.76655421    -0.20200
F833        F  0.17633669  0.98139233  0.78914868    -0.20500
F834        F  0.15644056  0.01864299  0.77129881    -0.23200
C835        C  0.08113684  0.01881794  0.19313242    -0.06000
C836        C  0.06310855  0.01179084  0.16925403    -0.00100
C837        C  0.08694640  0.02728479  0.14710971    -0.08700
C838        C  0.12840385  0.05324804  0.14982986    -0.06100
C839        C  0.14630225  0.06548128  0.17407741    -0.00100
C840        C  0.12246978  0.04582077  0.19620253    -0.08600
C841        C  0.13902632  0.05423555  0.22308488     0.61800
H842        H  0.06166161  0.00623099  0.20970678     0.12500
H843        H  0.14661968  0.06616258  0.13282495     0.12500
C844        C  0.06795873  0.01848921  0.12089188     0.62000
F845        F  0.10996808  0.03142450  0.24122462    -0.23200
F846        F  0.15398345  0.09311072  0.22897039    -0.20500
F847        F  0.16876142  0.04589072  0.22481360    -0.20200
F848        F  0.04510564  0.03512516  0.11851960    -0.20200
F849        F  0.04354132  0.97832260  0.11776515    -0.20500
F850        F  0.09654654  0.03319149  0.10154335    -0.23200
C851        C  0.37488232  0.11057040  0.05301231    -0.06000
C852        C  0.38078621  0.10608355  0.07886436    -0.00100
C853        C  0.39450762  0.08107409  0.08570214    -0.08700
C854        C  0.39603581  0.05707038  0.06688986    -0.06100
C855        C  0.38678762  0.05899930  0.04135458    -0.00100
C856        C  0.37850987  0.08784897  0.03392433    -0.08600
C857        C  0.37421535  0.09507468  0.00605462     0.61800
H858        H  0.36555000  0.13064929  0.04798637     0.12500
H859        H  0.40438334  0.03635135  0.07230187     0.12500
C860        C  0.40883508  0.07911818  0.11221486     0.62000
F861        F  0.37389807  0.12906394  0.00284138    -0.23200
F862        F  0.33875385  0.06402451  0.99659393    -0.20500
F863        F  0.40617740  0.09904857  0.99204719    -0.20200
F864        F  0.38361617  0.04210938  0.12244910    -0.20200
F865        F  0.41045098  0.10659173  0.12885792    -0.20500
F866        F  0.44717665  0.08597835  0.11031395    -0.23200
C867        C  0.34153798  0.28795829  0.02436172    -0.06000
C868        C  0.34966222  0.32490559  0.03219718    -0.00100
C869        C  0.34746798  0.33199235  0.05854609    -0.08700
C870        C  0.33779812  0.30175438  0.07618548    -0.06100
C871        C  0.33062970  0.26526847  0.06830841    -0.00100
C872        C  0.33249028  0.25803029  0.04210986    -0.08600
C873        C  0.32459853  0.21869840  0.03314343     0.61800
H874        H  0.34305202  0.28296734  0.00416320     0.12500
H875        H  0.33677780  0.30668150  0.09645279     0.12500
C876        C  0.35439256  0.37081416  0.06803359     0.62000
F877        F  0.32660588  0.21707827  0.00680130    -0.23200
F878        F  0.28668842  0.18925534  0.04107681    -0.20500
F879        F  0.35274693  0.21198350  0.04336182    -0.20200
F880        F  0.32975645  0.37980241  0.05508467    -0.20200
F881        F  0.39402365  0.40034051  0.06410873    -0.20500
F882        F  0.34601574  0.36955345  0.09388863    -0.23200
C883        C  0.34702965  0.08096937  0.26133753    -0.06000
C884        C  0.33201491  0.10467429  0.26802873    -0.00100
C885        C  0.30764070  0.09539832  0.29021689    -0.08700
C886        C  0.29590479  0.06045195  0.30347758    -0.06100
C887        C  0.30928595  0.03586111  0.29585251    -0.00100
C888        C  0.33620499  0.04668363  0.27501798    -0.08600
C889        C  0.35232186  0.02132867  0.26688441     0.61800
H890        H  0.36547523  0.08820930  0.24430578     0.12500
H891        H  0.27646961  0.05250008  0.32012408     0.12500
C892        C  0.29405602  0.12155925  0.30094502     0.62000
F893        F  0.37706689  0.03639089  0.24557333    -0.23200
F894        F  0.32075330  0.98397851  0.26109270    -0.20500
F895        F  0.37432098  0.01907032  0.28651667    -0.20200
F896        F  0.25287605  0.10287846  0.29873244    -0.20200
F897        F  0.31203663  0.15761561  0.28881713    -0.20500
F898        F  0.30391044  0.12842862  0.32653409    -0.23200
C899        C  0.27996618  0.24447819  0.27996817    -0.06000
C900        C  0.27823336  0.25572741  0.25487735    -0.00100
C901        C  0.26797083  0.28411541  0.25055871    -0.08700
C902        C  0.26141188  0.30143011  0.27173654    -0.06100
C903        C  0.26467501  0.29140264  0.29683053    -0.00100
C904        C  0.27352044  0.26203240  0.30120922    -0.08600
C905        C  0.27500524  0.24843505  0.32798001     0.61800
H906        H  0.28755240  0.22250604  0.28278812     0.12500
H907        H  0.25473642  0.32400460  0.26882594     0.12500
C908        C  0.26314083  0.29573273  0.22383330     0.62000
F909        F  0.28203450  0.21815500  0.32766511    -0.23200
F910        F  0.23872599  0.23512097  0.34029051    -0.20500
F911        F  0.30546063  0.27899979  0.34169312    -0.20200
F912        F  0.23770744  0.26246875  0.20985263    -0.20200
F913        F  0.30002914  0.31677424  0.21166819    -0.20500
F914        F  0.24695982  0.31903234  0.22433126    -0.23200
C915        C  0.53471266  0.29107479  0.16338827    -0.06000
C916        C  0.51101811  0.25596226  0.15010866    -0.00100
C917        C  0.52874283  0.24173473  0.13349824    -0.08700
C918        C  0.57029181  0.26454106  0.12972916    -0.06100
C919        C  0.59459557  0.29953018  0.14329955    -0.00100
C920        C  0.57666787  0.31301508  0.16076882    -0.08600
C921        C  0.60111160  0.34896067  0.17748956     0.61800
H922        H  0.51990738  0.30085845  0.17610794     0.12500
H923        H  0.58436512  0.25427126  0.11678339     0.12500
C924        C  0.50431620  0.20129405  0.12152906     0.62000
F925        F  0.57726076  0.35327716  0.19509433    -0.23200
F926        F  0.62024322  0.38245155  0.16252250    -0.20500
F927        F  0.62925405  0.34559739  0.19097997    -0.20200
F928        F  0.47478292  0.19890701  0.10608468    -0.20200
F929        F  0.48664795  0.17344083  0.14072789    -0.20500
F930        F  0.52789610  0.19252925  0.10677065    -0.23200
C931        C  0.26976873  0.13687339  0.65478311    -0.06000
C932        C  0.30726993  0.17184505  0.65170953    -0.00100
C933        C  0.34243133  0.17020194  0.65034527    -0.08700
C934        C  0.33844696  0.13332070  0.65188618    -0.06100
C935        C  0.30092700  0.09835545  0.65506607    -0.00100
C936        C  0.26581639  0.10003660  0.65640933    -0.08600
C937        C  0.22416892  0.06322287  0.65865474     0.61800
H938        H  0.24328323  0.13867347  0.65583189     0.12500
H939        H  0.36495246  0.13156928  0.65107057     0.12500
C940        C  0.38414534  0.20703180  0.64819485     0.62000
F941        F  0.19428977  0.07142371  0.65650096    -0.23200
F942        F  0.21940783  0.04555901  0.68214075    -0.20500
F943        F  0.21884449  0.03730417  0.63942360    -0.20200
F944        F  0.38894437  0.23388981  0.66660064    -0.20200
F945        F  0.38953223  0.22353975  0.62420476    -0.20500
F946        F  0.41397429  0.19905332  0.65170331    -0.23200
C947        C  0.01399121  0.09243277  0.82537950    -0.06000
C948        C  0.02133719  0.07407143  0.80525124    -0.00100
C949        C  0.04824024  0.09669998  0.78532766    -0.08700
C950        C  0.07000101  0.13752239  0.78749311    -0.06100
C951        C  0.06565685  0.15587682  0.80890097    -0.00100
C952        C  0.03638587  0.13338421  0.82782036    -0.08600
C953        C  0.03027982  0.15215056  0.85109357     0.61800
H954        H  0.99368255  0.07439494  0.84059128     0.12500
H955        H  0.09187615  0.15521182  0.77281133     0.12500
C956        C  0.05641742  0.07912447  0.76220430     0.62000
F957        F  0.99641056  0.12553667  0.86494326    -0.23200
F958        F  0.02586080  0.18262841  0.84370978    -0.20500
F959        F  0.06306174  0.16631580  0.86689838    -0.20200
F960        F  0.02914525  0.03921277  0.76000814    -0.20200
F961        F  0.09463275  0.08577902  0.76388786    -0.20500
F962        F  0.05412011  0.09690423  0.74024001    -0.23200
C963        C  0.03287898  0.31314466  0.68003991    -0.06000
C964        C  0.00135390  0.31614603  0.68984394    -0.00100
C965        C  0.00274507  0.32878963  0.71517786    -0.08700
C966        C  0.03587794  0.33755931  0.73023042    -0.06100
C967        C  0.06675561  0.33305616  0.72082310    -0.00100
C968        C  0.06587559  0.32147710  0.69515079    -0.08600
C969        C  0.09877377  0.31803716  0.68259812     0.61800
H970        H  0.03136961  0.30354512  0.66048233     0.12500
H971        H  0.03705670  0.34635201  0.74994200     0.12500
C972        C  0.96886878  0.33209098  0.72626666     0.62000
F973        F  0.11310229  0.34217286  0.66131961    -0.23200
F974        F  0.08311826  0.27968526  0.67495384    -0.20500
F975        F  0.13092771  0.32882132  0.69841355    -0.20200
F976        F  0.93337821  0.29584228  0.72575539    -0.20200
F977        F  0.96451113  0.35847257  0.71198115    -0.20500
F978        F  0.97604374  0.34491091  0.75132965    -0.23200
C979        C  0.24489464  0.26161592  0.73080171    -0.06000
C980        C  0.22087988  0.27560212  0.72255297    -0.00100
C981        C  0.21610357  0.27869574  0.69607150    -0.08700
C982        C  0.23664668  0.26849285  0.67862965    -0.06100
C983        C  0.26128824  0.25515625  0.68699318    -0.00100
C984        C  0.26544952  0.25150704  0.71353238    -0.08600
C985        C  0.29307636  0.23899184  0.72374571     0.61800
H986        H  0.24827569  0.25969058  0.75116890     0.12500
H987        H  0.23410229  0.27137498  0.65827684     0.12500
C988        C  0.19067696  0.29399097  0.68644657     0.62000
F989        F  0.29785488  0.24396223  0.74991986    -0.23200
F990        F  0.33069926  0.26122804  0.71253061    -0.20500
F991        F  0.27719119  0.19975765  0.71849073    -0.20200
F992        F  0.20436791  0.33074654  0.69656162    -0.20200
F993        F  0.15118010  0.26858837  0.69383473    -0.20500
F994        F  0.19202162  0.29717303  0.66007793    -0.23200
C995        C  0.29781699  0.36482916  0.90698728    -0.06000
C996        C  0.25664919  0.34170227  0.91238976    -0.00100
C997        C  0.24348039  0.32672752  0.93733083    -0.08700
C998        C  0.27244512  0.33645364  0.95640942    -0.06100
C999        C  0.31392993  0.36094717  0.95130848    -0.00100
C1000       C  0.32688351  0.37431300  0.92584527    -0.08600
C1001       C  0.37094990  0.39773020  0.91810976     0.61800
H1002       H  0.30706037  0.37598037  0.88770647     0.12500
H1003       H  0.26273796  0.32591205  0.97573514     0.12500
C1004       C  0.19906960  0.30203064  0.94385527     0.62000
F1005       F  0.37586386  0.40012118  0.89181746    -0.23200
F1006       F  0.39017603  0.37990570  0.92756356    -0.20500
F1007       F  0.38904678  0.43553545  0.92740854    -0.20200
F1008       F  0.18082893  0.26841977  0.92915818    -0.20200
F1009       F  0.18138988  0.32327574  0.93899211    -0.20500
F1010       F  0.19242435  0.29083890  0.96930031    -0.23200
C1011       C  0.28752138  0.58120794  0.81025484    -0.06000
C1012       C  0.28855003  0.59604766  0.83455548    -0.00100
C1013       C  0.26967323  0.57084696  0.85556813    -0.08700
C1014       C  0.24766648  0.53052151  0.85116686    -0.06100
C1015       C  0.24433201  0.51531039  0.82651360    -0.00100
C1016       C  0.26568824  0.54080793  0.80573859    -0.08600
C1017       C  0.26557422  0.52603977  0.77898969     0.61800
H1018       H  0.30241652  0.60166118  0.79458471     0.12500
H1019       H  0.23186087  0.51056604  0.86691897     0.12500
C1020       C  0.27233380  0.58656840  0.88232885     0.62000
F1021       F  0.29478102  0.55545782  0.76353475    -0.23200
F1022       F  0.22868823  0.51241498  0.76786518    -0.20500
F1023       F  0.27317135  0.49620749  0.77993426    -0.20200
F1024       F  0.24986878  0.60371245  0.88390118    -0.20200
F1025       F  0.31189297  0.61426203  0.88800221    -0.20500
F1026       F  0.25803797  0.55709368  0.90054555    -0.23200
C1027       C  0.62554140  0.23743575  0.53650978    -0.06000
C1028       C  0.61319261  0.25071712  0.51593161    -0.00100
C1029       C  0.58842295  0.22446177  0.49665684    -0.08700
C1030       C  0.57785425  0.18552424  0.49844122    -0.06100
C1031       C  0.59112790  0.17252219  0.51857748    -0.00100
C1032       C  0.61466938  0.19828369  0.53825716    -0.08600
C1033       C  0.62915826  0.18489924  0.56037148     0.61800
H1034       H  0.64434506  0.25824490  0.55100954     0.12500
H1035       H  0.55911208  0.16467754  0.48395473     0.12500
C1036       C  0.57448424  0.23738467  0.47380144     0.62000
F1037       F  0.65648355  0.21607653  0.57529966    -0.23200
F1038       F  0.64770498  0.16613741  0.55118651    -0.20500
F1039       F  0.59688975  0.15942720  0.57567808    -0.20200
F1040       F  0.60718825  0.26824982  0.46132454    -0.20200
F1041       F  0.54874204  0.24892636  0.48188501    -0.20500
F1042       F  0.55407849  0.20741442  0.45630028    -0.23200
C1043       C  0.41186065  0.03409238  0.60301884    -0.06000
C1044       C  0.39685236  0.99523240  0.59495203    -0.00100
C1045       C  0.35876111  0.96496011  0.60434017    -0.08700
C1046       C  0.33665397  0.97518377  0.62027293    -0.06100
C1047       C  0.35102986  0.01423464  0.62720639    -0.00100
C1048       C  0.38986914  0.04425956  0.61892907    -0.08600
C1049       C  0.40845234  0.08702784  0.62647331     0.61800
H1050       H  0.44070080  0.05730705  0.59587157     0.12500
H1051       H  0.30717465  0.95252657  0.62706111     0.12500
C1052       C  0.34133554  0.92199486  0.59811986     0.62000
F1053       F  0.44899270  0.10945974  0.62047528    -0.23200
F1054       F  0.40463753  0.09002876  0.65253399    -0.20500
F1055       F  0.38959579  0.10269792  0.61354577    -0.20200
F1056       F  0.36950495  0.91220211  0.60289805    -0.20200
F1057       F  0.33013961  0.91498812  0.57278382    -0.20500
F1058       F  0.30761521  0.89754319  0.61279867    -0.23200
C1059       C  0.35076691  0.96370468  0.40705283    -0.06000
C1060       C  0.39154410  0.98047377  0.40128457    -0.00100
C1061       C  0.40555549  0.99128443  0.37587334    -0.08700
C1062       C  0.37789598  0.98607831  0.35698478    -0.06100
C1063       C  0.33700493  0.96941370  0.36279608    -0.00100
C1064       C  0.32292590  0.95751452  0.38816506    -0.08600
C1065       C  0.27907216  0.93947992  0.39555492     0.61800
H1066       H  0.34092204  0.95547571  0.42668582     0.12500
H1067       H  0.38795213  0.99495371  0.33745838     0.12500
C1068       C  0.44944665  0.00887315  0.36894498     0.62000
F1069       F  0.27327487  0.93526916  0.42175754    -0.23200
F1070       F  0.25622951  0.90266933  0.38475746    -0.20500
F1071       F  0.26561454  0.96306998  0.38713647    -0.20200
F1072       F  0.45975986  0.98138157  0.37301249    -0.20200
F1073       F  0.47332789  0.04149236  0.38386709    -0.20500
F1074       F  0.45727655  0.02035536  0.34356883    -0.23200
C1075       C  0.40110028  0.81773454  0.45645827    -0.06000
C1076       C  0.37659474  0.82847042  0.46911763    -0.00100
C1077       C  0.34073985  0.79928198  0.48107636    -0.08700
C1078       C  0.33380849  0.76156821  0.48329089    -0.06100
C1079       C  0.36082693  0.75198246  0.47319695    -0.00100
C1080       C  0.39412769  0.77992411  0.45844923    -0.08600
C1081       C  0.42356694  0.77112491  0.44599244     0.61800
H1082       H  0.42841927  0.84014382  0.44716931     0.12500
H1083       H  0.30771579  0.73983461  0.49407702     0.12500
C1084       C  0.31043267  0.80717638  0.49289379     0.62000
F1085       F  0.44745912  0.76925794  0.46445300    -0.23200
F1086       F  0.44855957  0.79995855  0.42859441    -0.20500
F1087       F  0.40304412  0.73587766  0.43301494    -0.20200
F1088       F  0.31330331  0.84013939  0.48243739    -0.20200
F1089       F  0.31657440  0.81217262  0.51894212    -0.20500
F1090       F  0.27185889  0.77569856  0.48862098    -0.23200
C1091       C  0.21293432  0.86170726  0.31228881    -0.06000
C1092       C  0.21149364  0.89564129  0.31504490    -0.00100
C1093       C  0.17369669  0.89215467  0.31640114    -0.08700
C1094       C  0.13853529  0.85433322  0.31617050    -0.06100
C1095       C  0.14018058  0.82034727  0.31493556    -0.00100
C1096       C  0.17791077  0.82402355  0.31195676    -0.08600
C1097       C  0.18151205  0.78851681  0.30842937     0.61800
H1098       H  0.24205603  0.86491049  0.31115082     0.12500
H1099       H  0.10939374  0.85090784  0.31805426     0.12500
C1100       C  0.17045366  0.92790593  0.31940369     0.62000
F1101       F  0.21940792  0.79922684  0.29980370    -0.23200
F1102       F  0.15405930  0.76331138  0.29060960    -0.20500
F1103       F  0.17449743  0.76900075  0.33143624    -0.20200
F1104       F  0.18624069  0.95158189  0.29800558    -0.20200
F1105       F  0.19129777  0.94887477  0.34078718    -0.20500
F1106       F  0.13100018  0.91766410  0.32222378    -0.23200
C1107       C  0.90502702  0.90224202  0.19821185    -0.06000
C1108       C  0.91718800  0.91905469  0.17394591    -0.00100
C1109       C  0.89700124  0.89711388  0.15208387    -0.08700
C1110       C  0.86828631  0.85694748  0.15505162    -0.06100
C1111       C  0.85932461  0.83875487  0.17920074    -0.00100
C1112       C  0.87529604  0.86249156  0.20136025    -0.08600
C1113       C  0.86223557  0.84813801  0.22856725     0.61800
H1114       H  0.91941593  0.92023582  0.21489107     0.12500
H1115       H  0.85508441  0.83901068  0.13823956     0.12500
C1116       C  0.90666739  0.91597032  0.12581587     0.62000
F1117       F  0.85107815  0.87166312  0.24053153    -0.23200
F1118       F  0.89407262  0.85105522  0.24170479    -0.20500
F1119       F  0.82985374  0.80996606  0.22995328    -0.20200
F1120       F  0.94659730  0.93108617  0.11985473    -0.20200
F1121       F  0.89936085  0.94601472  0.12565766    -0.20500
F1122       F  0.88346104  0.88936433  0.10704596    -0.23200
C1123       C  0.88739855  0.59756427  0.03443520    -0.06000
C1124       C  0.91151606  0.58402167  0.04369998    -0.00100
C1125       C  0.91416475  0.58050318  0.07043909    -0.08700
C1126       C  0.89388597  0.59223196  0.08693400    -0.06100
C1127       C  0.87157100  0.60758296  0.07760209    -0.00100
C1128       C  0.86750043  0.60964151  0.05098422    -0.08600
C1129       C  0.84386408  0.62634055  0.04029785     0.61800
H1130       H  0.88566973  0.60020855  0.01397688     0.12500
H1131       H  0.89652118  0.59092333  0.10743817     0.12500
C1132       C  0.94037055  0.56698046  0.08156562     0.62000
F1133       F  0.84513586  0.62769775  0.01386821    -0.23200
F1134       F  0.85958058  0.66411368  0.04922459    -0.20500
F1135       F  0.80415595  0.60324783  0.04796576    -0.20200
F1136       F  0.97962170  0.59155695  0.07333672    -0.20200
F1137       F  0.92660797  0.52904153  0.07383487    -0.20500
F1138       F  0.94003042  0.56732179  0.10799907    -0.23200
C1139       C  0.75137243  0.71149500  0.28955761    -0.06000
C1140       C  0.74497781  0.71560270  0.26377390    -0.00100
C1141       C  0.72058143  0.73036099  0.25705073    -0.08700
C1142       C  0.70220456  0.73937686  0.27659217    -0.06100
C1143       C  0.70651230  0.73298212  0.30232475    -0.00100
C1144       C  0.73212446  0.71965563  0.30913749    -0.08600
C1145       C  0.73856624  0.71326986  0.33679931     0.61800
H1146       H  0.76996749  0.69995450  0.29420880     0.12500
H1147       H  0.68283240  0.74999623  0.27186038     0.12500
C1148       C  0.71342425  0.73602000  0.22936380     0.62000
F1149       F  0.77147491  0.70967006  0.33935318    -0.23200
F1150       F  0.70502676  0.67925049  0.34588337    -0.20500
F1151       F  0.74518374  0.74464918  0.35161935    -0.20200
F1152       F  0.69086184  0.69997490  0.21762328    -0.20200
F1153       F  0.74970773  0.75816587  0.21662840    -0.20500
F1154       F  0.69292825  0.75517657  0.22726548    -0.23200
C1155       C  0.92797656  0.69491105  0.28206439    -0.06000
C1156       C  0.93600498  0.70321756  0.25598096    -0.00100
C1157       C  0.97610766  0.72333226  0.24695048    -0.08700
C1158       C  0.00722267  0.73458255  0.26452198    -0.06100
C1159       C  0.99941871  0.72551262  0.29063833    -0.00100
C1160       C  0.95901992  0.70556296  0.29971587    -0.08600
C1161       C  0.94830646  0.69579860  0.32778909     0.61800
H1162       H  0.89696737  0.67947156  0.28843854     0.12500
H1163       H  0.03804295  0.74969706  0.25781430     0.12500
C1164       C  0.98575890  0.73207014  0.21874456     0.62000
F1165       F  0.90877639  0.68390858  0.33280329    -0.23200
F1166       F  0.97246548  0.72841523  0.34263897    -0.20500
F1167       F  0.95332326  0.66559304  0.33483576    -0.20200
F1168       F  0.97209784  0.75537602  0.21016041    -0.20200
F1169       F  0.96719096  0.69728524  0.20524601    -0.20500
F1170       F  0.02661323  0.75149462  0.21384215    -0.23200
C1171       C  0.76755744  0.48107828  0.13207065    -0.06000
C1172       C  0.77127241  0.49390149  0.15749050    -0.00100
C1173       C  0.75775260  0.46621008  0.17775334    -0.08700
C1174       C  0.73836193  0.42622941  0.17154620    -0.06100
C1175       C  0.73186805  0.41368035  0.14611772    -0.00100
C1176       C  0.74706360  0.44117613  0.12597487    -0.08600
C1177       C  0.73977495  0.42832861  0.09826018     0.61800
H1178       H  0.77881348  0.50265685  0.11683090     0.12500
H1179       H  0.72617392  0.40416437  0.18649608     0.12500
C1180       C  0.76171309  0.47822905  0.20560985     0.62000
F1181       F  0.75682255  0.45999972  0.08161139    -0.23200
F1182       F  0.69896438  0.40607419  0.09370729    -0.20500
F1183       F  0.75631476  0.40615950  0.09308057    -0.20200
F1184       F  0.74274679  0.49849036  0.20987359    -0.20200
F1185       F  0.80186922  0.50175127  0.21174652    -0.20500
F1186       F  0.74454440  0.44611073  0.22187339    -0.23200
C1187       C  0.20376337  0.61474273  0.51335202    -0.06000
C1188       C  0.18197914  0.59156229  0.49227326    -0.00100
C1189       C  0.20079041  0.57780295  0.47558382    -0.08700
C1190       C  0.24183543  0.59220485  0.47883925    -0.06100
C1191       C  0.26406818  0.61959415  0.49776567    -0.00100
C1192       C  0.24449094  0.62918680  0.51629454    -0.08600
C1193       C  0.26583839  0.65723543  0.53829853     0.61800
H1194       H  0.18974335  0.62409155  0.52707015     0.12500
H1195       H  0.25792444  0.58577807  0.46478468     0.12500
C1196       C  0.17951425  0.55060834  0.45331995     0.62000
F1197       F  0.26267729  0.68969497  0.53556994    -0.23200
F1198       F  0.30605099  0.66991824  0.53975890    -0.20500
F1199       F  0.24767038  0.63858982  0.56105666    -0.27100
F1200       F  0.17324076  0.57095054  0.43469969    -0.20200
F1201       F  0.14339497  0.51828170  0.46130060    -0.20500
F1202       F  0.20203576  0.53692722  0.44248004    -0.23200
C1203       C  0.04431069  0.62976240  0.37596218    -0.06000
C1204       C  0.05570441  0.64521122  0.40061980    -0.00100
C1205       C  0.07339652  0.68597834  0.40457576    -0.08700
C1206       C  0.07672155  0.70965992  0.38382732    -0.06100
C1207       C  0.06273818  0.69381786  0.35950521    -0.00100
C1208       C  0.04760002  0.65350192  0.35515175    -0.08600
C1209       C  0.03515097  0.63554143  0.32876042     0.61800
H1210       H  0.03092655  0.59850703  0.37336173     0.12500
H1211       H  0.08897323  0.74068036  0.38668985     0.12500
C1212       C  0.08855560  0.70439006  0.43061428     0.62000
F1213       F  0.02986135  0.59868091  0.32785529    -0.23200
F1214       F  0.06442142  0.65901926  0.31097107    -0.20500
F1215       F  0.99934773  0.63183873  0.32216321    -0.20200
F1216       F  0.11050908  0.74498323  0.42931293    -0.20200
F1217       F  0.11313537  0.69268402  0.44043499    -0.20500
F1218       F  0.05651973  0.69289307  0.44705050    -0.23200
C1219       C  0.93459988  0.36210085  0.57752714    -0.06000
C1220       C  0.94807561  0.40073420  0.58483967    -0.00100
C1221       C  0.95310559  0.41068183  0.61106328    -0.08700
C1222       C  0.94699285  0.38192662  0.62903380    -0.06100
C1223       C  0.93486531  0.34363467  0.62158278    -0.00100
C1224       C  0.92736140  0.33306574  0.59545437    -0.08600
C1225       C  0.91347106  0.29192190  0.58626932     0.61800
H1226       H  0.93063140  0.35509474  0.55735800     0.12500
H1227       H  0.95211393  0.38922898  0.64912833     0.12500
C1228       C  0.96590324  0.45157471  0.61993325     0.62000
F1229       F  0.91206096  0.28933682  0.55988564    -0.23200
F1230       F  0.87529303  0.26570643  0.59559503    -0.20500
F1231       F  0.93958425  0.28118728  0.59462644    -0.20200
F1232       F  0.93671880  0.45928943  0.61355998    -0.20200
F1233       F  0.00186516  0.47896578  0.60836793    -0.20500
F1234       F  0.97102017  0.45552825  0.64613261    -0.23200
C1235       C  0.98110005  0.63310841  0.57761960    -0.06000
C1236       C  0.99624681  0.61060599  0.58628238    -0.00100
C1237       C  0.00221252  0.60835947  0.61257569    -0.08700
C1238       C  0.99236891  0.62889138  0.62973314    -0.06100
C1239       C  0.97543825  0.65005607  0.62124446    -0.00100
C1240       C  0.97015876  0.65280975  0.59471863    -0.08600
C1241       C  0.95267949  0.67585032  0.58435148     0.61800
H1242       H  0.97644240  0.63383011  0.55730172     0.12500
H1243       H  0.99608558  0.62706330  0.65006075     0.12500
C1244       C  0.01704581  0.58285303  0.62231364     0.62000
F1245       F  0.95775009  0.68088365  0.55814142    -0.23200
F1246       F  0.97141386  0.71268234  0.59534997    -0.20500
F1247       F  0.91197406  0.65594567  0.58962209    -0.20200
F1248       F  0.05395195  0.59476173  0.61139480    -0.20200
F1249       F  0.98992643  0.54423199  0.61582088    -0.20500
F1250       F  0.02122514  0.58492304  0.64859759    -0.23200
C1251       C  0.79897116  0.40171351  0.52675028    -0.06000
C1252       C  0.81645337  0.41839774  0.50293235    -0.00100
C1253       C  0.79187741  0.41676028  0.48259106    -0.08700
C1254       C  0.75047520  0.39771686  0.48687382    -0.06100
C1255       C  0.73318624  0.37966978  0.51023046    -0.00100
C1256       C  0.75739232  0.38177618  0.53068605    -0.08600
C1257       C  0.73944960  0.36264839  0.55635993     0.61800
H1258       H  0.81807571  0.40327183  0.54210018     0.12500
H1259       H  0.73084960  0.39498686  0.47151689     0.12500
C1260       C  0.80851147  0.43424941  0.45636173     0.62000
F1261       F  0.76846432  0.37582027  0.57506854    -0.23200
F1262       F  0.72129480  0.32243888  0.55435901    -0.20500
F1263       F  0.71124366  0.37122397  0.56413846    -0.20200
F1264       F  0.82151201  0.41242193  0.44418341    -0.20200
F1265       F  0.83999902  0.47278426  0.45862759    -0.20500
F1266       F  0.77979695  0.43398988  0.44106710    -0.23200
C1267       C  0.47968691  0.52768638  0.99529577    -0.06000
C1268       C  0.51571353  0.52831025  0.99618883    -0.00100
C1269       C  0.51413065  0.49218600  0.99646968    -0.08700
C1270       C  0.47637173  0.45675079  0.99586862    -0.06100
C1271       C  0.44045644  0.45621439  0.99483505    -0.00100
C1272       C  0.44194861  0.49219203  0.99483288    -0.08600
C1273       C  0.40387093  0.49311968  0.99508009     0.61800
H1274       H  0.48134288  0.55542407  0.99522851     0.12500
H1275       H  0.47454693  0.42892285  0.99604728     0.12500
C1276       C  0.55199312  0.49080292  0.99665841     0.62000
F1277       F  0.41186842  0.53065008  0.99903241    -0.23200
F1278       F  0.37854969  0.46935491  0.01450808    -0.20500
F1279       F  0.38458323  0.47994553  0.97194521    -0.20200
F1280       F  0.57083869  0.50363904  0.01996319    -0.20200
F1281       F  0.57779272  0.51440079  0.97736301    -0.20500
F1282       F  0.54371841  0.45315184  0.99282498    -0.23200
C1283       C  0.63835661  0.62619438  0.06009744    -0.06000
C1284       C  0.64673137  0.61854148  0.03555567    -0.00100
C1285       C  0.68201859  0.61808576  0.03112247    -0.08700
C1286       C  0.70897411  0.62717001  0.05145508    -0.06100
C1287       C  0.70141137  0.63641662  0.07591770    -0.00100
C1288       C  0.66479379  0.63466303  0.08052954    -0.08600
C1289       C  0.65265704  0.64008476  0.10705353     0.61800
H1290       H  0.61068564  0.62546976  0.06310371     0.12500
H1291       H  0.73637642  0.62743112  0.04835373     0.12500
C1292       C  0.69058419  0.60742622  0.00510558     0.62000
F1293       F  0.61373831  0.63193019  0.10775266    -0.23200
F1294       F  0.67778065  0.67841228  0.11474468    -0.20500
F1295       F  0.65485978  0.61506755  0.12408984    -0.20200
F1296       F  0.69541263  0.63492883  0.98724553    -0.20200
F1297       F  0.65887328  0.57086619  0.99801348    -0.20500
F1298       F  0.72506908  0.60614002  0.00511440    -0.23200
C1299       C  0.83501379  0.14341903  0.65515649    -0.06000
C1300       C  0.79898131  0.13698489  0.66544780    -0.00100
C1301       C  0.79719598  0.16892201  0.67505947    -0.08700
C1302       C  0.83147256  0.20697741  0.67292438    -0.06100
C1303       C  0.86731843  0.21347708  0.66229366    -0.00100
C1304       C  0.86956922  0.18139616  0.65350318    -0.08600
C1305       C  0.90788630  0.18749757  0.64168674     0.61800
H1306       H  0.83563018  0.11843126  0.64807664     0.12500
H1307       H  0.83075773  0.23199851  0.67982506     0.12500
C1308       C  0.75970892  0.16252925  0.68829375     0.62000
F1309       F  0.90340253  0.15247070  0.63397021    -0.23200
F1310       F  0.93864101  0.20458200  0.65921972    -0.20500
F1311       F  0.91847959  0.21168458  0.62054219    -0.20200
F1312       F  0.75042462  0.13765278  0.70892065    -0.20200
F1313       F  0.72788765  0.14600462  0.67155017    -0.20500
F1314       F  0.76485459  0.19731135  0.69722667    -0.23200
C1315       C  0.65587693  0.06496550  0.62671367    -0.06000
C1316       C  0.66834963  0.03842169  0.62951564    -0.00100
C1317       C  0.64944032  0.00334305  0.61511295    -0.08700
C1318       C  0.61876784  0.99642475  0.59819118    -0.06100
C1319       C  0.60635561  0.02324381  0.59485820    -0.00100
C1320       C  0.62513699  0.05816747  0.60982920    -0.08600
C1321       C  0.61354053  0.08856018  0.60833962     0.61800
H1322       H  0.67047848  0.09129970  0.63821010     0.12500
H1323       H  0.60429686  0.96957506  0.58722753     0.12500
C1324       C  0.66213850  0.97369845  0.61686256     0.62000
F1325       F  0.63683299  0.12048685  0.62398541    -0.23200
F1326       F  0.57406228  0.07174918  0.61610222    -0.20500
F1327       F  0.61850396  0.10248350  0.58362705    -0.20200
F1328       F  0.65079131  0.95496885  0.64031443    -0.20200
F1329       F  0.70331918  0.99244626  0.61389882    -0.20500
F1330       F  0.64452046  0.94524546  0.59812252    -0.23200
C1331       C  0.80113384  0.63474698  0.65572749    -0.06000
C1332       C  0.80044425  0.66923939  0.65718763    -0.00100
C1333       C  0.83713318  0.70630278  0.65676946    -0.08700
C1334       C  0.87327170  0.70728576  0.65715619    -0.06100
C1335       C  0.87389229  0.67287374  0.65662299    -0.00100
C1336       C  0.83751457  0.63591598  0.65509539    -0.08600
C1337       C  0.83708665  0.59798699  0.65351241     0.61800
H1338       H  0.77287693  0.60677916  0.65563949     0.12500
H1339       H  0.90160748  0.73519762  0.65784024     0.12500
C1340       C  0.83869827  0.74483070  0.65501150     0.62000
F1341       F  0.79847360  0.56528821  0.65472612    -0.23200
F1342       F  0.85859258  0.59582569  0.67353009    -0.20500
F1343       F  0.85410030  0.59667908  0.63062111    -0.20200
F1344       F  0.82939268  0.75404303  0.67840133    -0.20200
F1345       F  0.81188807  0.74201925  0.63688925    -0.20500
F1346       F  0.87652200  0.77553726  0.64787975    -0.23200
C1347       C  0.85864544  0.90499819  0.84605575    -0.06000
C1348       C  0.84065504  0.87753937  0.82631857    -0.00100
C1349       C  0.86452913  0.87679672  0.80623811    -0.08700
C1350       C  0.90551605  0.90619332  0.80545663    -0.06100
C1351       C  0.92255581  0.93584609  0.82394250    -0.00100
C1352       C  0.89930748  0.93487106  0.84496060    -0.08600
C1353       C  0.91681505  0.96635453  0.86540592     0.61800
H1354       H  0.83973174  0.90515463  0.86116832     0.12500
H1355       H  0.92404733  0.90682699  0.78977744     0.12500
C1356       C  0.84834800  0.84594891  0.78539848     0.62000
F1357       F  0.92600145  0.00177693  0.85498918    -0.23200
F1358       F  0.95128748  0.97017421  0.87512809    -0.20500
F1359       F  0.89016541  0.95746782  0.88549177    -0.20200
F1360       F  0.85214209  0.86365461  0.76203577    -0.20200
F1361       F  0.80851837  0.81674637  0.78916070    -0.20500
F1362       F  0.87043991  0.82831883  0.78476706    -0.23200
C1363       C  0.72639890  0.73892306  0.74187349    -0.06000
C1364       C  0.70479172  0.75582807  0.73458921    -0.00100
C1365       C  0.69070306  0.75171983  0.70941077    -0.08700
C1366       C  0.69737384  0.72885493  0.69222822    -0.06100
C1367       C  0.71803864  0.71075202  0.69965747    -0.00100
C1368       C  0.73359632  0.71641915  0.72479034    -0.08600
C1369       C  0.75588168  0.69740683  0.73417419     0.61800
H1370       H  0.73667676  0.74272311  0.76141873     0.12500
H1371       H  0.68634496  0.72478618  0.67286811     0.12500
C1372       C  0.66876008  0.77142565  0.70105180     0.62000
F1373       F  0.76291796  0.70241294  0.76018010    -0.23200
F1374       F  0.79270050  0.71405640  0.72199972    -0.20500
F1375       F  0.73352682  0.65753294  0.72938034    -0.20200
F1376       F  0.69398209  0.81161937  0.70343136    -0.20200
F1377       F  0.63510931  0.75884280  0.71622006    -0.20500
F1378       F  0.65655038  0.76308399  0.67589697    -0.23200
C1379       C  0.70403362  0.97595242  0.74418126    -0.06000
C1380       C  0.70472287  0.94300661  0.73620860    -0.00100
C1381       C  0.71346751  0.93973720  0.71040916    -0.08700
C1382       C  0.72274729  0.97061728  0.69344490    -0.06100
C1383       C  0.72229565  0.00363233  0.70150849    -0.00100
C1384       C  0.71202944  0.00618495  0.72706862    -0.08600
C1385       C  0.70757038  0.03969395  0.73578221     0.61800
H1386       H  0.69621633  0.97731079  0.76388383     0.12500
H1387       H  0.72928728  0.96875271  0.67354080     0.12500
C1388       C  0.71036240  0.90273679  0.70063428     0.62000
F1389       F  0.69438881  0.03506889  0.76087278    -0.23200
F1390       F  0.67993521  0.04147995  0.72059408    -0.20500
F1391       F  0.74415917  0.07469294  0.73391375    -0.20200
F1392       F  0.67239245  0.87072455  0.70590352    -0.20200
F1393       F  0.73863833  0.89770463  0.71241583    -0.20500
F1394       F  0.71672661  0.90416242  0.67451183    -0.23200
C1395       C  0.58778189  0.69574233  0.92835812    -0.06000
C1396       C  0.62790391  0.72727896  0.92653840    -0.00100
C1397       C  0.65605556  0.72882474  0.94401145    -0.08700
C1398       C  0.64404428  0.69690116  0.96064716    -0.06100
C1399       C  0.60424515  0.66432795  0.96196593    -0.00100
C1400       C  0.57500171  0.66486019  0.94624222    -0.08600
C1401       C  0.53034102  0.63428745  0.94851904     0.61800
H1402       H  0.56630947  0.69514477  0.91525693     0.12500
H1403       H  0.66641839  0.69749317  0.97284853     0.12500
C1404       C  0.69828666  0.76468435  0.94613789     0.62000
F1405       F  0.50757026  0.64456251  0.93446786    -0.23200
F1406       F  0.51814420  0.63079846  0.97375170    -0.20500
F1407       F  0.52229943  0.59845579  0.93961153    -0.20200
F1408       F  0.69688654  0.79833393  0.94652711    -0.20200
F1409       F  0.72158948  0.76619640  0.92574381    -0.20500
F1410       F  0.71673606  0.76402681  0.96838243    -0.23200
C1411       C  0.42172205  0.75909309  0.84728772    -0.06000
C1412       C  0.40195931  0.73039325  0.82847057    -0.00100
C1413       C  0.42386385  0.72700795  0.80814850    -0.08700
C1414       C  0.46573451  0.75116788  0.80835523    -0.06100
C1415       C  0.48564588  0.77752265  0.82833638    -0.00100
C1416       C  0.46371623  0.78276488  0.84772940    -0.08600
C1417       C  0.48451441  0.81324732  0.86856557     0.61800
H1418       H  0.40407842  0.76136938  0.86239340     0.12500
H1419       H  0.48340615  0.74804292  0.79365882     0.12500
C1420       C  0.40335172  0.69793736  0.78649003     0.62000
F1421       F  0.45733870  0.81652700  0.88360929    -0.23200
F1422       F  0.51070815  0.84949173  0.85761170    -0.20500
F1423       F  0.50567290  0.80314105  0.88429839    -0.20200
F1424       F  0.37239066  0.70095523  0.77694762    -0.20200
F1425       F  0.38820339  0.66011937  0.79517300    -0.20500
F1426       F  0.42973604  0.70489419  0.76658061    -0.23200
C1427       C  0.37109736  0.33567096  0.57519914    -0.06000
C1428       C  0.40794962  0.36775727  0.58355134    -0.00100
C1429       C  0.42160609  0.36712541  0.60842640    -0.08700
C1430       C  0.39657090  0.33497084  0.62455762    -0.06100
C1431       C  0.35906570  0.30394544  0.61636912    -0.00100
C1432       C  0.34627786  0.30376025  0.59125851    -0.08600
C1433       C  0.30583826  0.27060513  0.58189918     0.61800
H1434       H  0.36132643  0.33631135  0.55601630     0.12500
H1435       H  0.40574329  0.33402841  0.64385882     0.12500
C1436       C  0.46152043  0.40060625  0.61817033     0.62000
F1437       F  0.29926825  0.27583786  0.55669026    -0.23200
F1438       F  0.27559323  0.26876091  0.59670395    -0.20500
F1439       F  0.30386960  0.23533527  0.58371303    -0.20200
F1440       F  0.46291888  0.43560356  0.61621395    -0.20200
F1441       F  0.49248389  0.40297543  0.60392443    -0.20500
F1442       F  0.46748868  0.39532980  0.64349126    -0.23200
C1443       C  0.30633320  0.38321058  0.39519097    -0.06000
C1444       C  0.31753483  0.38224549  0.36979153    -0.00100
C1445       C  0.35867741  0.40523571  0.36254288    -0.08700
C1446       C  0.38734698  0.42724596  0.38138337    -0.06100
C1447       C  0.37604820  0.42757226  0.40675931    -0.00100
C1448       C  0.33506078  0.40532446  0.41392863    -0.08600
C1449       C  0.32209010  0.40423131  0.44143815     0.61800
H1450       H  0.27480250  0.36581836  0.40035403     0.12500
H1451       H  0.41901389  0.44414679  0.37651849     0.12500
C1452       C  0.37234964  0.40771965  0.33500984     0.62000
F1453       F  0.28084590  0.38077406  0.44449429    -0.23200
F1454       F  0.33421669  0.44173458  0.44931681    -0.20500
F1455       F  0.33943254  0.38946970  0.45686399    -0.20200
F1456       F  0.35009802  0.41640871  0.31915556    -0.20200
F1457       F  0.36756562  0.37243211  0.32776146    -0.20500
F1458       F  0.41240683  0.43674931  0.33169891    -0.23200
C1459       C  0.62172517  0.55833054  0.60065807    -0.06000
C1460       C  0.59103723  0.56634098  0.59967367    -0.00100
C1461       C  0.59144462  0.59308183  0.61752974    -0.08700
C1462       C  0.62438740  0.61335246  0.63395259    -0.06100
C1463       C  0.65702430  0.60797098  0.63355962    -0.00100
C1464       C  0.65471048  0.57836752  0.61724222    -0.08600
C1465       C  0.68626835  0.56736538  0.61680858     0.61800
H1466       H  0.62074756  0.53735493  0.58724898     0.12500
H1467       H  0.62532505  0.63509054  0.64660397     0.12500
C1468       C  0.55791845  0.60119722  0.61926668     0.62000
F1469       F  0.67503062  0.53498786  0.60158187    -0.23200
F1470       F  0.69179793  0.55816382  0.64125606    -0.20500
F1471       F  0.72213625  0.59801630  0.60707709    -0.20200
F1472       F  0.52095704  0.56638197  0.61841589    -0.20200
F1473       F  0.56136240  0.62523174  0.59927422    -0.20500
F1474       F  0.55939731  0.61986093  0.64186030    -0.23200
C1475       C  0.58338802  0.66449709  0.41660484    -0.06000
C1476       C  0.56657109  0.62577249  0.40838297    -0.00100
C1477       C  0.57100943  0.61797030  0.38273034    -0.08700
C1478       C  0.59327246  0.64980987  0.36601798    -0.06100
C1479       C  0.61132422  0.68893393  0.37426730    -0.00100
C1480       C  0.60569868  0.69654134  0.39999541    -0.08600
C1481       C  0.62423612  0.73787443  0.41042720     0.61800
H1482       H  0.57981854  0.66939607  0.43651748     0.12500
H1483       H  0.59739209  0.64430282  0.34633078     0.12500
C1484       C  0.55332229  0.57627981  0.37337123     0.62000
F1485       F  0.61874860  0.73792273  0.43659121    -0.23200
F1486       F  0.60654202  0.75600071  0.39915481    -0.20500
F1487       F  0.66510087  0.75935782  0.40554504    -0.20200
F1488       F  0.51213395  0.55525724  0.37682821    -0.20200
F1489       F  0.56937275  0.55847240  0.38697616    -0.20500
F1490       F  0.56140489  0.57510034  0.34770820    -0.23200
C1491       C  0.58935083  0.41209239  0.48056882    -0.06000
C1492       C  0.55064289  0.39116466  0.49097969    -0.00100
C1493       C  0.53549399  0.35443619  0.50253812    -0.08700
C1494       C  0.56126916  0.34074930  0.50522871    -0.06100
C1495       C  0.60142299  0.36277741  0.49652235    -0.00100
C1496       C  0.61530578  0.39833766  0.48277520    -0.08600
C1497       C  0.65663897  0.42181847  0.47027353     0.61800
H1498       H  0.59964343  0.44027507  0.47171309     0.12500
H1499       H  0.55039406  0.31328065  0.51517679     0.12500
C1500       C  0.49252943  0.33056435  0.51238886     0.62000
F1501       F  0.68601450  0.43924518  0.48868720    -0.23200
F1502       F  0.66036680  0.45146254  0.45475531    -0.20500
F1503       F  0.66312794  0.39741771  0.45518643    -0.20200
F1504       F  0.46655154  0.32411510  0.49264616    -0.20200
F1505       F  0.48691730  0.35071101  0.53171208    -0.20500
F1506       F  0.48293321  0.29447631  0.52191460    -0.23200
C1507       C  0.43207957  0.67045064  0.47660404    -0.06000
C1508       C  0.40720403  0.66499012  0.49752569    -0.00100
C1509       C  0.41279749  0.65151264  0.52108224    -0.08700
C1510       C  0.43865477  0.63749355  0.52162647    -0.06100
C1511       C  0.45912461  0.63764008  0.49951303    -0.00100
C1512       C  0.45892264  0.65771345  0.47741174    -0.08600
C1513       C  0.48618592  0.66637774  0.45444994     0.61800
H1514       H  0.42935672  0.68326934  0.45911823     0.12500
H1515       H  0.44033747  0.62332750  0.53873899     0.12500
C1516       C  0.39179563  0.65207768  0.54537721     0.62000
F1517       F  0.50761262  0.70633324  0.44967616    -0.23200
F1518       F  0.46330229  0.64708627  0.43328710    -0.20500
F1519       F  0.51357808  0.65532570  0.45816201    -0.20200
F1520       F  0.35102405  0.62509680  0.54387124    -0.20200
F1521       F  0.39842052  0.68916870  0.54883810    -0.20500
F1522       F  0.40609075  0.64301487  0.56664533    -0.23200
C1523       C  0.47169807  0.99943588  0.98014055    -0.06000
C1524       C  0.45774773  0.99973507  0.00482937    -0.00100
C1525       C  0.47883728  0.99852042  0.02631807    -0.08700
C1526       C  0.51304897  0.99649985  0.02209300    -0.06100
C1527       C  0.52688029  0.99601834  0.99736781    -0.00100
C1528       C  0.50641090  0.99837015  0.97592634    -0.08600
C1529       C  0.52185518  0.00164412  0.94874584     0.61800
H1530       H  0.45538834  0.00076231  0.96400156     0.12500
H1531       H  0.52928466  0.99505365  0.03821244     0.12500
C1532       C  0.46501761  0.99827583  0.05355699     0.62000
F1533       F  0.50170699  0.01119972  0.93160938    -0.23200
F1534       F  0.51660743  0.96629037  0.94118077    -0.20500
F1535       F  0.56215799  0.03076529  0.94736145    -0.20200
F1536       F  0.42514284  0.96866836  0.05650184    -0.20200
F1537       F  0.46958792  0.03401895  0.05908829    -0.20500
F1538       F  0.48708324  0.99199798  0.07121620    -0.23200
C1539       C  0.60411119  0.95746637  0.92973246    -0.06000
C1540       C  0.60094100  0.94438112  0.95487720    -0.00100
C1541       C  0.60219741  0.91061199  0.96009159    -0.08700
C1542       C  0.60966158  0.89243750  0.93982596    -0.06100
C1543       C  0.61611024  0.90736540  0.91489270    -0.00100
C1544       C  0.61175068  0.93949661  0.90940835    -0.08600
C1545       C  0.61488429  0.95481778  0.88240628     0.61800
H1546       H  0.60216996  0.98296551  0.92629791     0.12500
H1547       H  0.61223492  0.86736981  0.94349397     0.12500
C1548       C  0.59546937  0.89385893  0.98688176     0.62000
F1549       F  0.60194433  0.98076917  0.88115123    -0.23200
F1550       F  0.59131102  0.92398210  0.86612602    -0.20500
F1551       F  0.65431476  0.97438174  0.87404331    -0.20200
F1552       F  0.55928217  0.88677180  0.99641262    -0.20200
F1553       F  0.62619201  0.92015033  0.00255944    -0.20500
F1554       F  0.59434787  0.85888096  0.98732910    -0.23200
C1555       C  0.95938110  0.44991652  0.00263330    -0.06000
C1556       C  0.99965374  0.46066584  0.00001784    -0.00100
C1557       C  0.03033813  0.50100848  0.00133138    -0.08700
C1558       C  0.01939193  0.52896306  0.00457067    -0.06100
C1559       C  0.97911113  0.51827390  0.00676802    -0.00100
C1560       C  0.94844126  0.47790620  0.00592815    -0.08600
C1561       C  0.90431986  0.46431356  0.00748795     0.61800
H1562       H  0.93621651  0.41912759  0.00151974     0.12500
H1563       H  0.04253505  0.55986642  0.00518507     0.12500
C1564       C  0.07453004  0.51478292  0.99980406     0.62000
F1565       F  0.87958511  0.42437877  0.00327632    -0.23200
F1566       F  0.89570446  0.48357593  0.98924760    -0.20500
F1567       F  0.89542073  0.47214653  0.03148780    -0.20200
F1568       F  0.08408842  0.50901488  0.97540889    -0.20200
F1569       F  0.08283457  0.49416678  0.01715301    -0.20500
F1570       F  0.09903725  0.55431330  0.00536560    -0.23200
C1571       C  0.06542451  0.41717373  0.93090393    -0.06000
C1572       C  0.06856593  0.40367113  0.95496162    -0.00100
C1573       C  0.09334678  0.38798163  0.95752645    -0.08700
C1574       C  0.11008207  0.38215809  0.93542202    -0.06100
C1575       C  0.10413282  0.39271879  0.91116253    -0.00100
C1576       C  0.08278381  0.41193276  0.90885568    -0.08600
C1577       C  0.07755606  0.42611626  0.88320607     0.61800
H1578       H  0.04691676  0.42955695  0.92916153     0.12500
H1579       H  0.12705407  0.36807328  0.93704980     0.12500
C1580       C  0.10292989  0.37663638  0.98285364     0.62000
F1581       F  0.06112427  0.44903228  0.88583026    -0.23200
F1582       F  0.05225531  0.39438330  0.86810067    -0.20500
F1583       F  0.11440482  0.44844533  0.87108453    -0.20200
F1584       F  0.08145692  0.33619505  0.98505328    -0.20200
F1585       F  0.09422416  0.39231520  0.00353444    -0.20500
F1586       F  0.14350741  0.39039218  0.98373277    -0.23200
C1587       C  0.63079509  0.82012388  0.34316137    -0.06000
C1588       C  0.66573412  0.82067649  0.33637730    -0.00100
C1589       C  0.70083397  0.85688584  0.32922722    -0.08700
C1590       C  0.69912261  0.89086910  0.32879157    -0.06100
C1591       C  0.66411575  0.89022399  0.33530120    -0.00100
C1592       C  0.62909131  0.85416359  0.34258358    -0.08600
C1593       C  0.58959439  0.85087762  0.34885795     0.61800
H1594       H  0.60431631  0.79239162  0.34861422     0.12500
H1595       H  0.72550111  0.91861276  0.32321364     0.12500
C1596       C  0.74029317  0.86046417  0.32226754     0.62000
F1597       F  0.55827077  0.81217466  0.35135937    -0.23200
F1598       F  0.57983217  0.86771482  0.32953883    -0.20500
F1599       F  0.59275663  0.86957700  0.37169123    -0.20200
F1600       F  0.73710710  0.84373894  0.29861218    -0.20200
F1601       F  0.74996142  0.84201680  0.34049402    -0.20500
F1602       F  0.77178052  0.89924729  0.32094531    -0.23200
C1603       C  0.63951838  0.98416281  0.39353746    -0.06000
C1604       C  0.62941832  0.98333449  0.36788216    -0.00100
C1605       C  0.59961836  0.99121390  0.36101364    -0.08700
C1606       C  0.58143168  0.00079301  0.38039880    -0.06100
C1607       C  0.59217757  0.00243306  0.40601877    -0.00100
C1608       C  0.62115643  0.99345011  0.41290721    -0.08600
C1609       C  0.63143965  0.99218401  0.44063842     0.61800
H1610       H  0.66197013  0.97739879  0.39825285     0.12500
H1611       H  0.55821962  0.00655591  0.37579150     0.12500
C1612       C  0.58586705  0.98782003  0.33358420     0.62000
F1613       F  0.65705500  0.97864735  0.44322124    -0.23200
F1614       F  0.59680172  0.96735860  0.45440746    -0.20500
F1615       F  0.65007818  0.02945148  0.45085976    -0.20200
F1616       F  0.57577884  0.95180382  0.32370447    -0.20200
F1617       F  0.61627804  0.01740468  0.31893641    -0.20500
F1618       F  0.55251701  0.99086929  0.33181266    -0.23200
C1619       C  0.17170400  0.34802561  0.35552730    -0.06000
C1620       C  0.18803184  0.34527835  0.33225433    -0.00100
C1621       C  0.17167254  0.34841133  0.30896191    -0.08700
C1622       C  0.13795852  0.35181296  0.30998555    -0.06100
C1623       C  0.12073194  0.35316835  0.33324549    -0.00100
C1624       C  0.13836641  0.35215721  0.35652615    -0.08600
C1625       C  0.12180338  0.35443228  0.38232674     0.61800
H1626       H  0.18510369  0.34637884  0.37309061     0.12500
H1627       H  0.12432046  0.35296774  0.29238338     0.12500
C1628       C  0.18956485  0.34872535  0.28303895     0.62000
F1629       F  0.14133051  0.34916492  0.40232346    -0.23200
F1630       F  0.08147143  0.32561164  0.38419154    -0.20500
F1631       F  0.12679314  0.39093821  0.38516004    -0.20200
F1632       F  0.18032025  0.31131788  0.27714668    -0.20200
F1633       F  0.23079352  0.37422782  0.28326609    -0.20500
F1634       F  0.17465510  0.36097171  0.26380763    -0.23200
C1635       C  0.99503257  0.37587988  0.37703927    -0.06000
C1636       C  0.03006763  0.39643908  0.36226861    -0.00100
C1637       C  0.05314999  0.43785265  0.36292984    -0.08700
C1638       C  0.04007018  0.45735952  0.37863587    -0.06100
C1639       C  0.00590857  0.43693127  0.39462433    -0.00100
C1640       C  0.98290966  0.39508247  0.39378342    -0.08600
C1641       C  0.94720535  0.37016162  0.41127517     0.61800
H1642       H  0.97785873  0.34414657  0.37591417     0.12500
H1643       H  0.05750376  0.48910084  0.37913836     0.12500
C1644       C  0.09117862  0.46138396  0.34700694     0.62000
F1645       F  0.93066793  0.33035939  0.40762110    -0.23200
F1646       F  0.91747307  0.37785011  0.40665823    -0.20500
F1647       F  0.95947891  0.37833897  0.43637528    -0.20200
F1648       F  0.08262548  0.45192421  0.32149079    -0.20200
F1649       F  0.11942659  0.45309446  0.35472374    -0.20500
F1650       F  0.10794999  0.50140416  0.34955205    -0.23200
C1651       C  0.68994854  0.04208547  0.06889346    -0.06000
C1652       C  0.72551523  0.07581875  0.06036276    -0.00100
C1653       C  0.72934219  0.08788471  0.03452629    -0.08700
C1654       C  0.69628591  0.06614928  0.01830071    -0.06100
C1655       C  0.66050269  0.03311441  0.02722108    -0.00100
C1656       C  0.65735258  0.02021587  0.05266109    -0.08600
C1657       C  0.62006623  0.98304385  0.06242699     0.61800
H1658       H  0.68768369  0.03318373  0.08866608     0.12500
H1659       H  0.69805369  0.07468365  0.99848501     0.12500
C1660       C  0.76849292  0.12195702  0.02383361     0.62000
F1661       F  0.62409548  0.97490705  0.08751735    -0.23200
F1662       F  0.61299881  0.95153342  0.04762487    -0.20500
F1663       F  0.58728874  0.98696313  0.06121371    -0.20200
F1664       F  0.79908617  0.11533535  0.02810617    -0.20200
F1665       F  0.77773937  0.15663672  0.03539487    -0.20500
F1666       F  0.76638751  0.12645486  0.99779463    -0.23200
C1667       C  0.90969274  0.28233202  0.04790836    -0.06000
C1668       C  0.92788912  0.26177852  0.05526062    -0.00100
C1669       C  0.96501260  0.27207259  0.04367076    -0.08700
C1670       C  0.98403928  0.30491568  0.02713496    -0.06100
C1671       C  0.96682706  0.32707555  0.02140657    -0.00100
C1672       C  0.92758608  0.31372828  0.03063889    -0.08600
C1673       C  0.90374621  0.33181737  0.02275084     0.61800
H1674       H  0.88133821  0.27463126  0.05644969     0.12500
H1675       H  0.01345155  0.31441629  0.01938016     0.12500
C1676       C  0.98498118  0.24925646  0.04877351     0.62000
F1677       F  0.90882492  0.34061542  0.99693886    -0.23200
F1678       F  0.91601587  0.36541251  0.03680639    -0.20500
F1679       F  0.86299895  0.30619069  0.02704602    -0.20200
F1680       F  0.95708827  0.20937478  0.04721090    -0.20200
F1681       F  0.00180637  0.25828562  0.07280494    -0.20500
F1682       F  0.01513612  0.25826634  0.03114222    -0.23200
C1683       C  0.72091983  0.03322483  0.24608592    -0.06000
C1684       C  0.75373369  0.07070131  0.25190135    -0.00100
C1685       C  0.76552207  0.08112936  0.27760546    -0.08700
C1686       C  0.74384524  0.05313177  0.29682334    -0.06100
C1687       C  0.71186931  0.01527278  0.29089131    -0.00100
C1688       C  0.69986474  0.00497418  0.26523947    -0.08600
C1689       C  0.66477699  0.96451590  0.25821261     0.61800
H1690       H  0.71255369  0.02594764  0.22625670     0.12500
H1691       H  0.75194118  0.06040406  0.31668388     0.12500
C1692       C  0.80005595  0.12185049  0.28469403     0.62000
F1693       F  0.65475366  0.96241013  0.23272772    -0.23200
F1694       F  0.63132062  0.95542923  0.27271829    -0.20500
F1695       F  0.67472933  0.93684884  0.26267107    -0.20200
F1696       F  0.79382942  0.14988356  0.27449729    -0.20200
F1697       F  0.83577670  0.12768784  0.27527895    -0.20500
F1698       F  0.80367599  0.12707036  0.31089204    -0.23200
C1699       C  0.93953244  0.28467050  0.26100510    -0.06000
C1700       C  0.93942745  0.25096747  0.25373369    -0.00100
C1701       C  0.96412566  0.24094969  0.26693174    -0.08700
C1702       C  0.98839944  0.26562733  0.28675504    -0.06100
C1703       C  0.98953023  0.30012334  0.29336089    -0.00100
C1704       C  0.96451982  0.30990573  0.28024163    -0.08600
C1705       C  0.96475561  0.34727299  0.28551520     0.61800
H1706       H  0.92006625  0.29160897  0.25100137     0.12500
H1707       H  0.00740957  0.25842196  0.29707181     0.12500
C1708       C  0.96647970  0.20563901  0.25959583     0.62000
F1709       F  0.94232237  0.35312594  0.26790907    -0.23200
F1710       F  0.00359291  0.37957062  0.28424806    -0.20500
F1711       F  0.94845948  0.34501589  0.30942697    -0.20200
F1712       F  0.97635239  0.20775538  0.23397376    -0.20200
F1713       F  0.92995542  0.17143878  0.26430626    -0.20500
F1714       F  0.99533401  0.20383333  0.27340570    -0.23200
C1715       C  0.75350623  0.26191846  0.12383137    -0.06000
C1716       C  0.73064847  0.22630090  0.13726927    -0.00100
C1717       C  0.69396567  0.21677259  0.14895058    -0.08700
C1718       C  0.68259063  0.24437713  0.14771766    -0.06100
C1719       C  0.70659651  0.28091470  0.13542791    -0.00100
C1720       C  0.74218951  0.28948036  0.12258990    -0.08600
C1721       C  0.76835533  0.32718224  0.10757364     0.61800
H1722       H  0.78165089  0.26901507  0.11511418     0.12500
H1723       H  0.65525480  0.23802530  0.15729354     0.12500
C1724       C  0.66692200  0.17807188  0.16277616     0.62000
F1725       F  0.79685502  0.32565550  0.09279260    -0.23200
F1726       F  0.78841021  0.35838876  0.12420282    -0.20500
F1727       F  0.74487293  0.33355783  0.09128606    -0.20200
F1728       F  0.68412354  0.17787226  0.18564391    -0.20200
F1729       F  0.66120676  0.14720055  0.14776194    -0.20500
F1730       F  0.62954458  0.17207385  0.16821677    -0.23200
C1731       C  0.95569440  0.10035517  0.19897674    -0.06000
C1732       C  0.96910269  0.12670272  0.17814121    -0.00100
C1733       C  0.99316475  0.12395004  0.15898727    -0.08700
C1734       C  0.99533164  0.09039071  0.15841168    -0.06100
C1735       C  0.97635853  0.06110350  0.17709650    -0.00100
C1736       C  0.95815757  0.06688083  0.19852984    -0.08600
C1737       C  0.94041460  0.03744974  0.22038038     0.61800
H1738       H  0.93958927  0.10377350  0.21454259     0.12500
H1739       H  0.01144973  0.08662500  0.14290573     0.12500
C1740       C  0.01565820  0.15460834  0.13839950     0.62000
F1741       F  0.92854330  0.05125755  0.24063779    -0.23200
F1742       F  0.96858594  0.02977613  0.22930884    -0.20500
F1743       F  0.90710441  0.00293007  0.21200363    -0.20200
F1744       F  0.02212283  0.19069582  0.14533146    -0.20200
F1745       F  0.99418072  0.14224368  0.11594349    -0.20500
F1746       F  0.05289955  0.15960359  0.13417332    -0.23200
loop_ 
_geom_bond_atom_site_label_1 
_geom_bond_atom_site_label_2 
_geom_bond_distance 
_geom_bond_site_symmetry_2 
_ccdc_geom_bond_type 
Zr1           O2   2.442       .  S
Zr1           O3   2.432       .  S
Zr1           O4   2.430       .  S
Zr1           O7   2.411       .  S
Zr1           O9   2.372       .  S
Zr1          O10   2.382       .  S
Zr1          O11   2.405       .  S
Zr1          O12   2.389       .  S
O2           H58   0.990       .  S
O2           H66   0.990       .  S
O3           C23   1.281       .  A
O4           C25   1.284       .  A
O5          Zr15   2.427       .  S
O5           C24   1.283       .  A
O6          Zr14   2.439       .  S
O6           C25   1.284       .  A
O7           C24   1.281       .  A
O8          Zr16   2.404       .  S
O8           C23   1.279       .  A
O9          Zr14   2.399       .  S
O9          Zr16   2.383       .  S
O10         Zr15   2.390       .  S
O10         Zr16   2.379       .  S
O10          H45   0.966       .  S
O11         Zr14   2.398       .  S
O11         Zr31   2.385       .  S
O11          H48   0.965       .  S
O12         Zr15   2.381       .  S
O12         Zr31   2.372       .  S
Zr13         O38   2.442       .  S
Zr13         O32   2.433       .  S
Zr13         O40   2.427       .  S
Zr13         O28   2.413       .  S
Zr13         O19   2.396       .  S
Zr13         O20   2.403       .  S
Zr13         O21   2.379       .  S
Zr13         O22   2.373       .  S
Zr14         O33   2.435       .  S
Zr14         O26   2.433       .  S
Zr14         O27   2.427       .  S
Zr14         O20   2.402       .  S
Zr14         O21   2.391       .  S
Zr15         O17   2.436       .  S
Zr15         O39   2.436       .  S
Zr15         O41   2.424       .  S
Zr15         O19   2.387       .  S
Zr15         O22   2.390       .  S
Zr16         O42   2.436       .  S
Zr16         O43   2.435       .  S
Zr16         O18   2.437       .  S
Zr16         O19   2.393       .  S
Zr16         O20   2.383       .  S
O17          H54   0.990       .  S
O18          H49   0.990       .  S
O18          H63   0.990       .  S
O20          H46   0.965       .  S
O21         Zr31   2.372       .  S
O22         Zr31   2.379       .  S
O22          H47   0.966       .  S
C23        C1652   1.474       .  S
C24        C1716   1.476       .  S
C25        C1668   1.495       .  S
O26          H62   0.990       .  S
O27          C29   1.284       .  A
O28          C29   1.282       .  A
C29        C1732   1.483       .  S
O30         Zr31   2.435       .  S
O30          H59   0.990       .  S
Zr31         O34   2.436       .  S
Zr31         O35   2.438       .  S
Zr31         O36   2.400       .  S
O32          C37   1.282       .  A
O33          H50   0.990       .  S
O33          H65   0.990       .  S
O34          H51   0.990       .  S
O35          H55   0.990       .  S
O35          H64   0.990       .  S
O36          C37   1.279       .  A
C37        C1700   1.484       .  S
O38          H57   0.990       .  S
O38          H61   0.990       .  S
O39          H53   0.990       .  S
O39          H60   0.990       .  S
O40          C44   1.281       .  A
O41          C44   1.283       .  A
O42          H52   0.990       .  S
O43          H56   0.990       .  S
C44        C1684   1.472       .  S
C67        C1636   1.474       .  S
C67          N68   1.355       .  A
C67          N72   1.359       .  A
N68          C69   1.353       .  A
C69        C1703   1.484   1_455  S
C69          N70   1.356       .  A
N70          C71   1.358       .  A
C71        C1623   1.482       .  S
C71          N72   1.359       .  A
C73        C1604   1.466       .  S
C73          N74   1.357       .  A
C73          N78   1.353       .  A
N74          C75   1.356       .  A
C75        C1591   1.483       .  S
C75          N76   1.360       .  A
N76          C77   1.357       .  A
C77        C1687   1.469   1_565  S
C77          N78   1.353       .  A
C79        C1671   1.491       .  S
C79          N80   1.360       .  A
C79          N84   1.359   1_654  A
N80          C81   1.359   1_654  A
C81        C1556   1.497   1_456  S
C81          N82   1.361       .  A
N82          C83   1.363       .  A
C83        C1572   1.487       .  S
C83          N84   1.360       .  A
C85        C1655   1.465       .  S
C85          N86   1.357       .  A
C85          N90   1.354   1_544  A
N86          C87   1.359   1_544  A
C87        C1527   1.480       .  S
C87          N88   1.356       .  A
N88          C89   1.355       .  A
C89        C1540   1.465       .  S
C89          N90   1.355       .  A
Zr91         O92   2.443       .  S
Zr91         O93   2.450       .  S
Zr91         O94   2.448       .  S
Zr91         O97   2.414       .  S
Zr91         O99   2.376       .  S
Zr91        O100   2.387       .  S
Zr91        O101   2.408       .  S
Zr91        O102   2.397       .  S
O92         H148   0.990       .  S
O92         H156   0.991       .  S
O93         C113   1.285       .  A
O94         C115   1.286       .  A
O95        Zr105   2.406       .  S
O95         C114   1.278       .  A
O96        Zr104   2.429       .  S
O96         C115   1.282       .  A
O97         C114   1.280       .  A
O98        Zr106   2.406       .  S
O98         C113   1.280       .  A
O99        Zr104   2.394       .  S
O99        Zr106   2.381       .  S
O100       Zr105   2.391       .  S
O100       Zr106   2.384       .  S
O100        H135   0.966       .  S
O101       Zr104   2.392       .  S
O101       Zr121   2.396       .  S
O101        H138   0.965       .  S
O102       Zr105   2.383       .  S
O102       Zr121   2.378       .  S
Zr103       O128   2.441       .  S
Zr103       O122   2.436       .  S
Zr103       O130   2.457       .  S
Zr103       O118   2.431       .  S
Zr103       O109   2.393       .  S
Zr103       O110   2.412       .  S
Zr103       O111   2.383       .  S
Zr103       O112   2.377       .  S
Zr104       O123   2.438       .  S
Zr104       O116   2.435       .  S
Zr104       O117   2.406       .  S
Zr104       O110   2.404       .  S
Zr104       O111   2.395       .  S
Zr105       O107   2.436       .  S
Zr105       O129   2.437       .  S
Zr105       O131   2.411       .  S
Zr105       O109   2.387       .  S
Zr105       O112   2.390       .  S
Zr106       O132   2.434       .  S
Zr106       O133   2.435       .  S
Zr106       O108   2.438       .  S
Zr106       O109   2.391       .  S
Zr106       O110   2.387       .  S
O107        H144   0.990       .  S
O108        H139   0.990       .  S
O108        H153   0.990       .  S
O110        H136   0.965       .  S
O111       Zr121   2.369       .  S
O112       Zr121   2.387       .  S
O112        H137   0.966       .  S
C113       C1428   1.482       .  S
C114       C1492   1.446       .  S
C115       C1460   1.494       .  S
O116        H152   0.990       .  S
O117        C119   1.280       .  A
O118        C119   1.284       .  A
C119       C1511   1.464       .  S
O120       Zr121   2.439       .  S
O120        H149   0.990       .  S
Zr121       O124   2.438       .  S
Zr121       O125   2.439       .  S
Zr121       O126   2.412       .  S
O122        C127   1.282       .  A
O123        H140   0.990       .  S
O123        H155   0.990       .  S
O124        H141   0.990       .  S
O125        H145   0.988       .  S
O125        H154   0.990       .  S
O126        C127   1.279       .  A
C127       C1476   1.467       .  S
O128        H147   0.990       .  S
O128        H151   0.990       .  S
O129        H143   0.990       .  S
O129        H150   0.990       .  S
O130        C134   1.288       .  A
O131        C134   1.279       .  A
O132        H142   0.990       .  S
O133        H146   0.990       .  S
C134       C1447   1.473       .  S
Zr157       O158   2.443       .  S
Zr157       O159   2.443       .  S
Zr157       O160   2.464       .  S
Zr157       O163   2.417       .  S
Zr157       O165   2.380       .  S
Zr157       O166   2.387       .  S
Zr157       O167   2.403       .  S
Zr157       O168   2.403       .  S
O158        H214   0.990       .  S
O158        H222   0.991       .  S
O159        C179   1.285       .  A
O160        C181   1.288       .  A
O161       Zr171   2.411       .  S
O161        C180   1.280       .  A
O162       Zr170   2.432       .  S
O162        C181   1.283       .  A
O163        C180   1.281       .  A
O164       Zr172   2.403       .  S
O164        C179   1.277       .  A
O165       Zr170   2.399       .  S
O165       Zr172   2.390       .  S
O166       Zr171   2.387       .  S
O166       Zr172   2.380       .  S
O166        H201   0.965       .  S
O167       Zr170   2.391       .  S
O167       Zr187   2.389       .  S
O167        H204   0.965       .  S
O168       Zr171   2.390       .  S
O168       Zr187   2.384       .  S
Zr169       O194   2.442       .  S
Zr169       O188   2.429       .  S
Zr169       O196   2.450       .  S
Zr169       O184   2.435       .  S
Zr169       O175   2.391       .  S
Zr169       O176   2.414       .  S
Zr169       O177   2.383       .  S
Zr169       O178   2.383       .  S
Zr170       O189   2.434       .  S
Zr170       O182   2.434       .  S
Zr170       O183   2.417       .  S
Zr170       O176   2.403       .  S
Zr170       O177   2.395       .  S
Zr171       O173   2.438       .  S
Zr171       O195   2.439       .  S
Zr171       O197   2.415       .  S
Zr171       O175   2.385       .  S
Zr171       O178   2.392       .  S
Zr172       O198   2.436       .  S
Zr172       O199   2.437       .  S
Zr172       O174   2.437       .  S
Zr172       O175   2.381       .  S
Zr172       O176   2.382       .  S
O173        H210   0.990       .  S
O174        H205   0.991       .  S
O174        H219   0.990       .  S
O176        H202   0.964       .  S
O177       Zr187   2.380       .  S
O178       Zr187   2.385       .  S
O178        H203   0.966       .  S
C179       C1543   1.472       .  S
C180       C1415   1.459       .  S
C181       C1396   1.499       .  S
O182        H218   0.990       .  S
O183        C185   1.282       .  A
O184        C185   1.284       .  A
C185       C1348   1.464       .  S
O186       Zr187   2.439       .  S
O186        H215   0.990       .  S
Zr187       O190   2.437       .  S
Zr187       O191   2.439       .  S
Zr187       O192   2.404       .  S
O188        C193   1.281       .  A
O189        H206   0.990       .  S
O189        H221   0.990       .  S
O190        H207   0.990       .  S
O191        H211   0.989       .  S
O191        H220   0.990       .  S
O192        C193   1.278       .  A
C193       C1364   1.461       .  S
O194        H213   0.990       .  S
O194        H217   0.990       .  S
O195        H209   0.990       .  S
O195        H216   0.990       .  S
O196        C200   1.286       .  A
O197        C200   1.281       .  A
O198        H208   0.990       .  S
O199        H212   0.990       .  S
C200       C1380   1.474       .  S
C223       C1367   1.476       .  S
C223        N224   1.358       .  A
C223        N228   1.349       .  A
N224        C225   1.363       .  A
C225       C1463   1.504       .  S
C225        N226   1.361       .  A
N226        C227   1.360       .  A
C227       C1332   1.477       .  S
C227        N228   1.350       .  A
C229       C1316   1.482       .  S
C229        N230   1.355       .  A
C229        N234   1.360       .  A
N230        C231   1.356       .  A
C231       C1383   1.471       .  S
C231        N232   1.359       .  A
N232        C233   1.358       .  A
C233       C1300   1.474       .  S
C233        N234   1.359       .  A
C235       C1399   1.512       .  S
C235        N236   1.364       .  A
C235        N240   1.364       .  A
N236        C237   1.364       .  A
C237       C1268   1.490       .  S
C237        N238   1.358   1_556  A
N238        C239   1.356       .  A
C239       C1284   1.480       .  S
C239        N240   1.358   1_554  A
Zr241       O242   2.441       .  S
Zr241       O243   2.464       .  S
Zr241       O244   2.443       .  S
Zr241       O247   2.464       .  S
Zr241       O249   2.381   1_455  S
Zr241       O250   2.391       .  S
Zr241       O251   2.422       .  S
Zr241       O252   2.390       .  S
O242        H298   0.990       .  S
O242        H306   0.990       .  S
O243        C263   1.286       .  A
O244        C265   1.285   1_455  A
O245       Zr255   2.428       .  S
O245        C264   1.287       .  A
O246       Zr254   2.445       .  S
O246        C265   1.285       .  A
O247        C264   1.289       .  A
O248       Zr256   2.395   1_455  S
O248        C263   1.275       .  A
O249       Zr254   2.399       .  S
O249       Zr256   2.387       .  S
O250       Zr255   2.400       .  S
O250       Zr256   2.382   1_455  S
O250        H285   0.964       .  S
O251       Zr254   2.396   1_455  S
O251       Zr271   2.382       .  S
O251        H288   0.963       .  S
O252       Zr255   2.369       .  S
O252       Zr271   2.366       .  S
Zr253       O278   2.443       .  S
Zr253       O272   2.453       .  S
Zr253       O280   2.432       .  S
Zr253       O268   2.430       .  S
Zr253       O259   2.395       .  S
Zr253       O260   2.415       .  S
Zr253       O261   2.374       .  S
Zr253       O262   2.384   1_655  S
Zr254       O273   2.433       .  S
Zr254       O266   2.434       .  S
Zr254       O267   2.418       .  S
Zr254       O260   2.403       .  S
Zr254       O261   2.395       .  S
Zr255       O257   2.436       .  S
Zr255       O279   2.439       .  S
Zr255       O281   2.431       .  S
Zr255       O259   2.384   1_455  S
Zr255       O262   2.405       .  S
Zr256       O282   2.436   1_655  S
Zr256       O283   2.436       .  S
Zr256       O258   2.437       .  S
Zr256       O259   2.380       .  S
Zr256       O260   2.384       .  S
O257        H294   0.990       .  S
O258        H289   0.990       .  S
O258        H303   0.990       .  S
O260        H286   0.964       .  S
O261       Zr271   2.373   1_655  S
O262       Zr271   2.387       .  S
O262        H287   0.966       .  S
C263       C1204   1.475       .  S
C264       C1188   1.494       .  S
C265       C1639   1.497   1_655  S
O266        H302   0.990       .  S
O267        C269   1.281       .  A
O268        C269   1.284       .  A
C269       C1252   1.474       .  S
O270       Zr271   2.439       .  S
O270        H299   0.990       .  S
Zr271       O274   2.438   1_455  S
Zr271       O275   2.438       .  S
Zr271       O276   2.397   1_455  S
O272        C277   1.284       .  A
O273        H290   0.988       .  S
O273        H305   0.988       .  S
O274        H291   0.990       .  S
O275        H295   0.990       .  S
O275        H304   0.990       .  S
O276        C277   1.277       .  A
C277       C1220   1.479       .  S
O278        H297   0.990       .  S
O278        H301   0.991       .  S
O279        H293   0.990       .  S
O279        H300   0.990       .  S
O280        C284   1.282   1_655  A
O281        C284   1.282       .  A
O282        H292   0.990       .  S
O283        H296   0.990       .  S
C284       C1236   1.464   1_455  S
Zr307       O308   2.442       .  S
Zr307       O309   2.449       .  S
Zr307       O310   2.451       .  S
Zr307       O313   2.397       .  S
Zr307       O315   2.378       .  S
Zr307       O316   2.385       .  S
Zr307       O317   2.396       .  S
Zr307       O318   2.409       .  S
O308        H364   0.990       .  S
O308        H372   0.991       .  S
O309        C329   1.286       .  A
O310        C331   1.287       .  A
O311       Zr321   2.436       .  S
O311        C330   1.284       .  A
O312       Zr320   2.444       .  S
O312        C331   1.287       .  A
O313        C330   1.281       .  A
O314       Zr322   2.439       .  S
O314        C329   1.285       .  A
O315       Zr320   2.400       .  S
O315       Zr322   2.380       .  S
O316       Zr321   2.384       .  S
O316       Zr322   2.367       .  S
O316        H351   0.965       .  S
O317       Zr320   2.395       .  S
O317       Zr337   2.391       .  S
O317        H354   0.964       .  S
O318       Zr321   2.392       .  S
O318       Zr337   2.385       .  S
Zr319       O344   2.440       .  S
Zr319       O338   2.451       .  S
Zr319       O346   2.436       .  S
Zr319       O334   2.422       .  S
Zr319       O325   2.401       .  S
Zr319       O326   2.419       .  S
Zr319       O327   2.377       .  S
Zr319       O328   2.385       .  S
Zr320       O339   2.434       .  S
Zr320       O332   2.434       .  S
Zr320       O333   2.437       .  S
Zr320       O326   2.403       .  S
Zr320       O327   2.391       .  S
Zr321       O323   2.435       .  S
Zr321       O345   2.438       .  S
Zr321       O347   2.436       .  S
Zr321       O325   2.387       .  S
Zr321       O328   2.396       .  S
Zr322       O348   2.433       .  S
Zr322       O349   2.435       .  S
Zr322       O324   2.437       .  S
Zr322       O325   2.398       .  S
Zr322       O326   2.399       .  S
O323        H360   0.990       .  S
O324        H355   0.990       .  S
O324        H369   0.990       .  S
O326        H352   0.965       .  S
O327       Zr337   2.379       .  S
O328       Zr337   2.388       .  S
O328        H353   0.966       .  S
C329       C1127   1.483       .  S
C330       C1172   1.476       .  S
C331       C1287   1.490       .  S
O332        H368   0.990       .  S
O333        C335   1.285       .  A
O334        C335   1.281       .  A
C335       C1111   1.479       .  S
O336       Zr337   2.435       .  S
O336        H365   0.990       .  S
Zr337       O340   2.436       .  S
Zr337       O341   2.438       .  S
Zr337       O342   2.402       .  S
O338        C343   1.285       .  A
O339        H356   0.990       .  S
O339        H371   0.990       .  S
O340        H357   0.990       .  S
O341        H361   0.990       .  S
O341        H370   0.990       .  S
O342        C343   1.277       .  A
C343       C1140   1.472       .  S
O344        H363   0.991       .  S
O344        H367   0.989       .  S
O345        H359   0.990       .  S
O345        H366   0.990       .  S
O346        C350   1.283       .  A
O347        C350   1.284       .  A
O348        H358   0.990       .  S
O349        H362   0.990       .  S
C350       C1156   1.477       .  S
C373       C1143   1.474       .  S
C373        N374   1.354       .  A
C373        N378   1.355       .  A
N374        C375   1.358       .  A
C375       C1479   1.485       .  S
C375        N376   1.358       .  A
N376        C377   1.361       .  A
C377       C1588   1.487       .  S
C377        N378   1.355       .  A
C379       C1207   1.480       .  S
C379        N380   1.357       .  A
C379        N384   1.357       .  A
N380        C381   1.358       .  A
C381       C1159   1.488   1_455  S
C381        N382   1.364       .  A
N382        C383   1.361       .  A
C383       C1095   1.484       .  S
C383        N384   1.356       .  A
Zr385       O386   2.442       .  S
Zr385       O387   2.454       .  S
Zr385       O388   2.433       .  S
Zr385       O391   2.423       .  S
Zr385       O393   2.377   1_545  S
Zr385       O394   2.383       .  S
Zr385       O395   2.416       .  S
Zr385       O396   2.395       .  S
O386        H442   0.989       .  S
O386        H450   0.991       .  S
O387        C407   1.284       .  A
O388        C409   1.283   1_545  A
O389       Zr399   2.414       .  S
O389        C408   1.283       .  A
O390       Zr398   2.443       .  S
O390        C409   1.284       .  A
O391        C408   1.280       .  A
O392       Zr400   2.410       .  S
O392        C407   1.280   1_565  A
O393       Zr398   2.408       .  S
O393       Zr400   2.390       .  S
O394       Zr399   2.391       .  S
O394       Zr400   2.377   1_545  S
O394        H429   0.965       .  S
O395       Zr398   2.398   1_545  S
O395       Zr415   2.391       .  S
O395        H432   0.964       .  S
O396       Zr399   2.374       .  S
O396       Zr415   2.374       .  S
Zr397       O422   2.443       .  S
Zr397       O416   2.427       .  S
Zr397       O424   2.423       .  S
Zr397       O412   2.404       .  S
Zr397       O403   2.396       .  S
Zr397       O404   2.407       .  S
Zr397       O405   2.377       .  S
Zr397       O406   2.374   1_565  S
Zr398       O417   2.437       .  S
Zr398       O410   2.434       .  S
Zr398       O411   2.438       .  S
Zr398       O404   2.401       .  S
Zr398       O405   2.395       .  S
Zr399       O401   2.436       .  S
Zr399       O423   2.436       .  S
Zr399       O425   2.417       .  S
Zr399       O403   2.387   1_545  S
Zr399       O406   2.397       .  S
Zr400       O426   2.437       .  S
Zr400       O427   2.441       .  S
Zr400       O402   2.438       .  S
Zr400       O403   2.391       .  S
Zr400       O404   2.381       .  S
O401        H438   0.990       .  S
O402        H433   0.990       .  S
O402        H447   0.990       .  S
O404        H430   0.964       .  S
O405       Zr415   2.373   1_565  S
O406       Zr415   2.381       .  S
O406        H431   0.966       .  S
C407       C1319   1.504       .  S
C408       C1031   1.453       .  S
C409       C1044   1.498       .  S
O410        H446   0.990       .  S
O411        C413   1.287       .  A
O412        C413   1.279       .  A
C413       C1076   1.472       .  S
O414       Zr415   2.435       .  S
O414        H443   0.990       .  S
Zr415       O418   2.435       .  S
Zr415       O419   2.437       .  S
Zr415       O420   2.411       .  S
O416        C421   1.280       .  A
O417        H434   0.990       .  S
O417        H449   0.990       .  S
O418        H435   0.990   1_545  S
O419        H439   0.990       .  S
O419        H448   0.990       .  S
O420        C421   1.279   1_545  A
C421       C1060   1.469       .  S
O422        H441   0.991       .  S
O422        H445   0.990       .  S
O423        H437   0.989       .  S
O423        H444   0.990       .  S
O424        C428   1.280   1_565  A
O425        C428   1.281       .  A
O426        H436   0.990       .  S
O427        H440   0.990       .  S
C428       C1607   1.465       .  S
Zr451       O452   2.444       .  S
Zr451       O453   2.459       .  S
Zr451       O454   2.451       .  S
Zr451       O457   2.415       .  S
Zr451       O459   2.377       .  S
Zr451       O460   2.389       .  S
Zr451       O461   2.411       .  S
Zr451       O462   2.410       .  S
O452        H508   0.990       .  S
O452        H516   0.991       .  S
O453        C473   1.286       .  A
O454        C475   1.285       .  A
O455       Zr465   2.424       .  S
O455        C474   1.283       .  A
O456       Zr464   2.420       .  S
O456        C475   1.281       .  A
O457        C474   1.281       .  A
O458       Zr466   2.406       .  S
O458        C473   1.279       .  A
O459       Zr464   2.398       .  S
O459       Zr466   2.385       .  S
O460       Zr465   2.400       .  S
O460       Zr466   2.377       .  S
O460        H495   0.966       .  S
O461       Zr464   2.397       .  S
O461       Zr481   2.383       .  S
O461        H498   0.964       .  S
O462       Zr465   2.391       .  S
O462       Zr481   2.389       .  S
Zr463       O488   2.443       .  S
Zr463       O482   2.452       .  S
Zr463       O490   2.426       .  S
Zr463       O478   2.407       .  S
Zr463       O469   2.396       .  S
Zr463       O470   2.413       .  S
Zr463       O471   2.376       .  S
Zr463       O472   2.373       .  S
Zr464       O483   2.437       .  S
Zr464       O476   2.435       .  S
Zr464       O477   2.408       .  S
Zr464       O470   2.401       .  S
Zr464       O471   2.397       .  S
Zr465       O467   2.432       .  S
Zr465       O489   2.439       .  S
Zr465       O491   2.445       .  S
Zr465       O469   2.383       .  S
Zr465       O472   2.392       .  S
Zr466       O492   2.435       .  S
Zr466       O493   2.435       .  S
Zr466       O468   2.437       .  S
Zr466       O469   2.394       .  S
Zr466       O470   2.382       .  S
O467        H504   0.990       .  S
O468        H499   0.990       .  S
O468        H513   0.990       .  S
O470        H496   0.965       .  S
O471       Zr481   2.372       .  S
O472       Zr481   2.382       .  S
O472        H497   0.966       .  S
C473        C980   1.481       .  S
C474        C951   1.462       .  S
C475        C967   1.470       .  S
O476        H512   0.990       .  S
O477        C479   1.279       .  A
O478        C479   1.279       .  A
C479       C1015   1.462       .  S
O480       Zr481   2.439       .  S
O480        H509   0.990       .  S
Zr481       O484   2.437       .  S
Zr481       O485   2.439       .  S
Zr481       O486   2.413       .  S
O482        C487   1.286       .  A
O483        H500   0.990       .  S
O483        H515   0.990       .  S
O484        H501   0.990       .  S
O485        H505   0.990       .  S
O485        H514   0.990       .  S
O486        C487   1.279       .  A
C487       C1575   1.479       .  S
O488        H507   0.991       .  S
O488        H511   0.990       .  S
O489        H503   0.990       .  S
O489        H510   0.990       .  S
O490        C494   1.282       .  A
O491        C494   1.286       .  A
O492        H502   0.990       .  S
O493        H506   0.990       .  S
C494        C996   1.479       .  S
C517        C983   1.482       .  S
C517        N518   1.358       .  A
C517        N522   1.359       .  A
N518        C519   1.358       .  A
C519       C1431   1.471       .  S
C519        N520   1.357       .  A
N520        C521   1.358       .  A
C521        C932   1.487       .  S
C521        N522   1.360       .  A
C523        C964   1.468   1_655  S
C523        N524   1.357       .  A
C523        N528   1.356       .  A
N524        C525   1.360       .  A
C525       C1223   1.480       .  S
C525        N526   1.358       .  A
N526        C527   1.357       .  A
C527       C1303   1.472       .  S
C527        N528   1.355       .  A
Zr529       O530   2.443       .  S
Zr529       O531   2.447       .  S
Zr529       O532   2.441       .  S
Zr529       O535   2.451       .  S
Zr529       O537   2.381       .  S
Zr529       O538   2.392       .  S
Zr529       O539   2.418       .  S
Zr529       O540   2.395       .  S
O530        H586   0.990       .  S
O530        H594   0.989       .  S
O531        C551   1.283       .  A
O532        C553   1.283       .  A
O533       Zr543   2.444       .  S
O533        C552   1.290       .  A
O534       Zr542   2.434       .  S
O534        C553   1.284       .  A
O535        C552   1.286       .  A
O536       Zr544   2.397       .  S
O536        C551   1.275       .  A
O537       Zr542   2.393       .  S
O537       Zr544   2.387       .  S
O538       Zr543   2.400       .  S
O538       Zr544   2.387       .  S
O538        H573   0.966       .  S
O539       Zr542   2.394       .  S
O539       Zr559   2.387       .  S
O539        H576   0.964       .  S
O540       Zr543   2.376       .  S
O540       Zr559   2.374       .  S
Zr541       O566   2.442       .  S
Zr541       O560   2.446       .  S
Zr541       O568   2.424       .  S
Zr541       O556   2.422       .  S
Zr541       O547   2.389       .  S
Zr541       O548   2.413       .  S
Zr541       O549   2.374       .  S
Zr541       O550   2.383       .  S
Zr542       O561   2.436       .  S
Zr542       O554   2.436       .  S
Zr542       O555   2.410       .  S
Zr542       O548   2.401       .  S
Zr542       O549   2.398       .  S
Zr543       O545   2.437       .  S
Zr543       O567   2.439       .  S
Zr543       O569   2.450       .  S
Zr543       O547   2.380       .  S
Zr543       O550   2.408       .  S
Zr544       O570   2.436       .  S
Zr544       O571   2.435       .  S
Zr544       O546   2.437       .  S
Zr544       O547   2.376       .  S
Zr544       O548   2.392       .  S
O545        H582   0.990       .  S
O546        H577   0.990       .  S
O546        H591   0.990       .  S
O548        H574   0.965       .  S
O549       Zr559   2.373       .  S
O550       Zr559   2.385       .  S
O550        H575   0.966       .  S
C551        C900   1.476       .  S
C552        C839   1.498       .  S
C553        C884   1.476       .  S
O554        H590   0.990       .  S
O555        C557   1.280       .  A
O556        C557   1.280       .  A
C557        C916   1.457       .  S
O558       Zr559   2.436       .  S
O558        H587   0.990       .  S
Zr559       O562   2.436       .  S
Zr559       O563   2.436       .  S
Zr559       O564   2.406       .  S
O560        C565   1.284       .  A
O561        H578   0.990       .  S
O561        H593   0.990       .  S
O562        H579   0.990       .  S
O563        H583   0.990       .  S
O563        H592   0.990       .  S
O564        C565   1.279       .  A
C565        C852   1.476       .  S
O566        H585   0.991       .  S
O566        H589   0.990       .  S
O567        H581   0.990       .  S
O567        H588   0.990       .  S
O568        C572   1.282       .  A
O569        C572   1.287       .  A
O570        H580   0.990       .  S
O571        H584   0.990       .  S
C572        C871   1.473       .  S
C595        C903   1.477       .  S
C595        N596   1.357       .  A
C595        N600   1.357       .  A
N596        C597   1.358       .  A
C597       C1444   1.482       .  S
C597        N598   1.358       .  A
N598        C599   1.358       .  A
C599       C1620   1.482       .  S
C599        N600   1.356       .  A
C601        C887   1.470       .  S
C601        N602   1.362   1_545  A
C601        N606   1.355       .  A
N602        C603   1.361       .  A
C603       C1092   1.484       .  S
C603        N604   1.358       .  A
N604        C605   1.355       .  A
C605       C1063   1.474       .  S
C605        N606   1.355   1_565  A
C607        C868   1.482       .  S
C607        N608   1.360       .  A
C607        N612   1.360   1_554  A
N608        C609   1.359   1_554  A
C609       C1271   1.486       .  S
C609        N610   1.359       .  A
N610        C611   1.360       .  A
C611        C999   1.494       .  S
C611        N612   1.360       .  A
Zr613       O614   2.442       .  S
Zr613       O615   2.456       .  S
Zr613       O616   2.457       .  S
Zr613       O619   2.424       .  S
Zr613       O621   2.376       .  S
Zr613       O622   2.393       .  S
Zr613       O623   2.412       .  S
Zr613       O624   2.402       .  S
O614        H670   0.990       .  S
O614        H678   0.991       .  S
O615        C635   1.286       .  A
O616        C637   1.285       .  A
O617       Zr627   2.419       .  S
O617        C636   1.281       .  A
O618       Zr626   2.428       .  S
O618        C637   1.281       .  A
O619        C636   1.281       .  A
O620       Zr628   2.411       .  S
O620        C635   1.281       .  A
O621       Zr626   2.399       .  S
O621       Zr628   2.390       .  S
O622       Zr627   2.388       .  S
O622       Zr628   2.384       .  S
O622        H657   0.965       .  S
O623       Zr626   2.395       .  S
O623       Zr643   2.395       .  S
O623        H660   0.962       .  S
O624       Zr627   2.384       .  S
O624       Zr643   2.380       .  S
Zr625       O650   2.440       .  S
Zr625       O644   2.431       .  S
Zr625       O652   2.429       .  S
Zr625       O640   2.412       .  S
Zr625       O631   2.401       .  S
Zr625       O632   2.403       .  S
Zr625       O633   2.378       .  S
Zr625       O634   2.375       .  S
Zr626       O645   2.437       .  S
Zr626       O638   2.435       .  S
Zr626       O639   2.419       .  S
Zr626       O632   2.395       .  S
Zr626       O633   2.397       .  S
Zr627       O629   2.434       .  S
Zr627       O651   2.437       .  S
Zr627       O653   2.433       .  S
Zr627       O631   2.386       .  S
Zr627       O634   2.390       .  S
Zr628       O654   2.436       .  S
Zr628       O655   2.436       .  S
Zr628       O630   2.437       .  S
Zr628       O631   2.401       .  S
Zr628       O632   2.388       .  S
O629        H666   0.990       .  S
O630        H661   0.990       .  S
O630        H675   0.990       .  S
O632        H658   0.965       .  S
O633       Zr643   2.368       .  S
O634       Zr643   2.374       .  S
O634        H659   0.966       .  S
C635        C788   1.498       .  S
C636        C804   1.459       .  S
C637        C772   1.477       .  S
O638        H674   0.990       .  S
O639        C641   1.283       .  A
O640        C641   1.283       .  A
C641        C820   1.468       .  S
O642       Zr643   2.434       .  S
O642        H671   0.990       .  S
Zr643       O646   2.435       .  S
Zr643       O647   2.439       .  S
Zr643       O648   2.427       .  S
O644        C649   1.282       .  A
O645        H662   0.990       .  S
O645        H677   0.989       .  S
O646        H663   0.990       .  S
O647        H667   0.990       .  S
O647        H676   0.990       .  S
O648        C649   1.283       .  A
C649        C740   1.489       .  S
O650        H669   0.990       .  S
O650        H673   0.990       .  S
O651        H665   0.990       .  S
O651        H672   0.990       .  S
O652        C656   1.284       .  A
O653        C656   1.283       .  A
O654        H664   0.990   1_455  S
O655        H668   0.990       .  S
C656        C756   1.494       .  S
C679       C1239   1.474       .  S
C679        N680   1.354       .  A
C679        N684   1.356       .  A
N680        C681   1.353       .  A
C681       C1335   1.469       .  S
C681        N682   1.357       .  A
N682        C683   1.356       .  A
C683        C759   1.484   1_655  S
C683        N684   1.359       .  A
C685       C1047   1.488       .  S
C685        N686   1.359   1_545  A
C685        N690   1.361       .  A
N686        C687   1.356   1_565  A
C687        C743   1.473   1_545  S
C687        N688   1.357       .  A
N688        C689   1.358       .  A
C689        C935   1.488       .  S
C689        N690   1.361       .  A
C691        C791   1.493   1_655  S
C691        N692   1.359       .  A
C691        N696   1.352   1_556  A
N692        C693   1.361   1_556  A
C693       C1559   1.496       .  S
C693        N694   1.367       .  A
N694        C695   1.366       .  A
C695       C1124   1.491       .  S
C695        N696   1.354       .  A
C697        C775   1.487       .  S
C697        N698   1.359       .  A
C697        N702   1.360   1_566  A
N698        C699   1.359   1_566  A
C699       C1524   1.480   1_545  S
C699        N700   1.355       .  A
N700        C701   1.357       .  A
C701        C855   1.479       .  S
C701        N702   1.360       .  A
C703       C1735   1.459       .  S
C703        N704   1.355   1_545  A
C703        N708   1.346   1_655  A
N704        C705   1.357       .  A
C705       C1108   1.462       .  S
C705        N706   1.362       .  A
N706        C707   1.356   1_665  A
C707        C836   1.457       .  S
C707        N708   1.348       .  A
C709       C1495   1.477       .  S
C709        N710   1.354       .  A
C709        N714   1.355       .  A
N710        C711   1.349       .  A
C711       C1028   1.456       .  S
C711        N712   1.349       .  A
N712        C713   1.348       .  A
C713       C1255   1.457       .  S
C713        N714   1.355       .  A
C715       C1508   1.462       .  S
C715        N716   1.357       .  A
C715        N720   1.360       .  A
N716        C717   1.354       .  A
C717       C1079   1.469       .  S
C717        N718   1.346       .  A
N718        C719   1.346       .  A
C719       C1191   1.453       .  S
C719        N720   1.354       .  A
C721        C823   1.456       .  S
C721        N722   1.357   1_455  A
C721        N726   1.347   1_565  A
N722        C723   1.357       .  A
C723       C1351   1.465       .  S
C723        N724   1.358   1_565  A
N724        C725   1.355   1_655  A
C725        C948   1.456       .  S
C725        N726   1.350       .  A
C727        C807   1.453       .  S
C727        N728   1.356       .  A
C727        N732   1.348       .  A
N728        C729   1.357       .  A
C729       C1412   1.460       .  S
C729        N730   1.353       .  A
N730        C731   1.349       .  A
C731       C1012   1.446       .  S
C731        N732   1.345       .  A
C733       C1719   1.477       .  S
C733        N734   1.352       .  A
C733        N738   1.357       .  A
N734        C735   1.353       .  A
C735        C919   1.475       .  S
C735        N736   1.352       .  A
N736        C737   1.355       .  A
C737       C1175   1.459       .  S
C737        N738   1.356       .  A
C739        C740   1.407       .  A
C739        C744   1.404       .  A
C739        H746   1.083       .  S
C740        C741   1.424       .  A
C741        C742   1.412       .  A
C741        C748   1.520       .  S
C742        C743   1.402       .  A
C742        H747   1.083       .  S
C743        C744   1.411       .  A
C744        C745   1.519   1_565  S
C745        F749   1.384       .  S
C745        F750   1.383       .  S
C745        F751   1.383       .  S
C748        F752   1.384       .  S
C748        F753   1.385       .  S
C748        F754   1.382       .  S
C755        C756   1.409       .  A
C755        C760   1.408       .  A
C755        H762   1.082       .  S
C756        C757   1.423       .  A
C757        C758   1.403       .  A
C757        C764   1.518       .  S
C758        C759   1.402       .  A
C758        H763   1.083       .  S
C759        C760   1.419       .  A
C760        C761   1.521   1_455  S
C761        F765   1.385       .  S
C761        F766   1.383       .  S
C761        F767   1.384       .  S
C764        F768   1.382       .  S
C764        F769   1.383       .  S
C764        F770   1.385       .  S
C771        C772   1.401       .  A
C771        C776   1.412       .  A
C771        H778   1.083       .  S
C772        C773   1.416       .  A
C773        C774   1.406       .  A
C773        C780   1.519       .  S
C774        C775   1.404       .  A
C774        H779   1.083       .  S
C775        C776   1.421       .  A
C776        C777   1.518   1_556  S
C777        F781   1.384       .  S
C777        F782   1.382       .  S
C777        F783   1.384       .  S
C780        F784   1.381       .  S
C780        F785   1.383       .  S
C780        F786   1.384       .  S
C787        C788   1.407       .  A
C787        C792   1.406   1_455  A
C787        H794   1.082       .  S
C788        C789   1.423       .  A
C789        C790   1.408       .  A
C789        C796   1.515       .  S
C790        C791   1.405       .  A
C790        H795   1.082       .  S
C791        C792   1.423   1_455  A
C792        C793   1.523       .  S
C793        F797   1.385       .  S
C793        F798   1.382       .  S
C793        F799   1.384       .  S
C796        F800   1.381       .  S
C796        F801   1.381       .  S
C796        F802   1.385       .  S
C803        C804   1.403       .  A
C803        C808   1.399       .  A
C803        H810   1.084       .  S
C804        C805   1.411       .  A
C805        C806   1.397       .  A
C805        C812   1.513       .  S
C806        C807   1.400       .  A
C806        H811   1.084       .  S
C807        C808   1.411       .  A
C808        C809   1.519       .  S
C809        F813   1.385       .  S
C809        F814   1.384       .  S
C809        F815   1.382       .  S
C812        F816   1.382       .  S
C812        F817   1.379       .  S
C812        F818   1.385       .  S
C819        C820   1.405       .  A
C819        C824   1.402       .  A
C819        H826   1.083       .  S
C820        C821   1.414       .  A
C821        C822   1.397       .  A
C821        C828   1.514       .  S
C822        C823   1.398       .  A
C822        H827   1.085       .  S
C823        C824   1.412       .  A
C824        C825   1.517       .  S
C825        F829   1.385       .  S
C825        F830   1.381       .  S
C825        F831   1.384   1_565  S
C828        F832   1.382       .  S
C828        F833   1.384       .  S
C828        F834   1.384   1_565  S
C835        C836   1.395       .  A
C835        C840   1.406       .  A
C835        H842   1.084       .  S
C836        C837   1.405       .  A
C837        C838   1.401       .  A
C837        C844   1.517       .  S
C838        C839   1.412       .  A
C838        H843   1.082       .  S
C839        C840   1.429       .  A
C840        C841   1.516       .  S
C841        F845   1.386       .  S
C841        F846   1.382       .  S
C841        F847   1.381       .  S
C844        F848   1.383       .  S
C844        F849   1.383   1_545  S
C844        F850   1.384       .  S
C851        C852   1.403       .  A
C851        C856   1.410       .  A
C851        H858   1.083       .  S
C852        C853   1.419       .  A
C853        C854   1.402       .  A
C853        C860   1.520       .  S
C854        C855   1.401       .  A
C854        H859   1.084       .  S
C855        C856   1.418       .  A
C856        C857   1.516       .  S
C857        F861   1.385       .  S
C857        F862   1.382   1_554  S
C857        F863   1.384   1_554  S
C860        F864   1.383       .  S
C860        F865   1.382       .  S
C860        F866   1.384       .  S
C867        C868   1.406       .  A
C867        C872   1.408       .  A
C867        H874   1.083       .  S
C868        C869   1.419       .  A
C869        C870   1.408       .  A
C869        C876   1.519       .  S
C870        C871   1.402       .  A
C870        H875   1.084       .  S
C871        C872   1.411       .  A
C872        C873   1.516       .  S
C873        F877   1.384       .  S
C873        F878   1.383       .  S
C873        F879   1.383       .  S
C876        F880   1.383       .  S
C876        F881   1.382       .  S
C876        F882   1.385       .  S
C883        C884   1.406       .  A
C883        C888   1.404       .  A
C883        H890   1.083       .  S
C884        C885   1.418       .  A
C885        C886   1.407       .  A
C885        C892   1.517       .  S
C886        C887   1.402       .  A
C886        H891   1.085       .  S
C887        C888   1.412       .  A
C888        C889   1.518       .  S
C889        F893   1.385       .  S
C889        F894   1.383   1_545  S
C889        F895   1.383       .  S
C892        F896   1.382       .  S
C892        F897   1.383       .  S
C892        F898   1.384       .  S
C899        C900   1.404       .  A
C899        C904   1.408       .  A
C899        H906   1.083       .  S
C900        C901   1.418       .  A
C901        C902   1.402       .  A
C901        C908   1.521       .  S
C902        C903   1.402       .  A
C902        H907   1.082       .  S
C903        C904   1.417       .  A
C904        C905   1.518       .  S
C905        F909   1.385       .  S
C905        F910   1.383       .  S
C905        F911   1.381       .  S
C908        F912   1.383       .  S
C908        F913   1.381       .  S
C908        F914   1.385       .  S
C915        C916   1.399       .  A
C915        C920   1.403       .  A
C915        H922   1.084       .  S
C916        C917   1.408       .  A
C917        C918   1.398       .  A
C917        C924   1.519       .  S
C918        C919   1.406       .  A
C918        H923   1.083       .  S
C919        C920   1.422       .  A
C920        C921   1.521       .  S
C921        F925   1.385       .  S
C921        F926   1.383       .  S
C921        F927   1.384       .  S
C924        F928   1.382       .  S
C924        F929   1.383       .  S
C924        F930   1.385       .  S
C931        C932   1.404       .  A
C931        C936   1.408       .  A
C931        H938   1.083       .  S
C932        C933   1.420       .  A
C933        C934   1.409       .  A
C933        C940   1.521       .  S
C934        C935   1.405       .  A
C934        H939   1.082       .  S
C935        C936   1.419       .  A
C936        C937   1.520       .  S
C937        F941   1.385       .  S
C937        F942   1.382       .  S
C937        F943   1.383       .  S
C940        F944   1.384       .  S
C940        F945   1.383       .  S
C940        F946   1.385       .  S
C947        C948   1.400       .  A
C947        C952   1.402       .  A
C947        H954   1.084   1_455  S
C948        C949   1.413       .  A
C949        C950   1.396       .  A
C949        C956   1.517       .  S
C950        C951   1.400       .  A
C950        H955   1.085       .  S
C951        C952   1.415       .  A
C952        C953   1.516       .  S
C953        F957   1.385   1_455  S
C953        F958   1.383       .  S
C953        F959   1.381       .  S
C956        F960   1.383       .  S
C956        F961   1.383       .  S
C956        F962   1.384       .  S
C963        C964   1.402       .  A
C963        C968   1.406       .  A
C963        H970   1.085       .  S
C964        C965   1.411       .  A
C965        C966   1.404       .  A
C965        C972   1.518   1_455  S
C966        C967   1.405       .  A
C966        H971   1.084       .  S
C967        C968   1.417       .  A
C968        C969   1.517       .  S
C969        F973   1.383       .  S
C969        F974   1.383       .  S
C969        F975   1.381       .  S
C972        F976   1.383       .  S
C972        F977   1.383       .  S
C972        F978   1.385       .  S
C979        C980   1.403       .  A
C979        C984   1.405       .  A
C979        H986   1.084       .  S
C980        C981   1.415       .  A
C981        C982   1.412       .  A
C981        C988   1.515       .  S
C982        C983   1.407       .  A
C982        H987   1.083       .  S
C983        C984   1.417       .  A
C984        C985   1.520       .  S
C985        F989   1.384       .  S
C985        F990   1.384       .  S
C985        F991   1.382       .  S
C988        F992   1.383       .  S
C988        F993   1.383       .  S
C988        F994   1.385       .  S
C995        C996   1.400       .  A
C995       C1000   1.407       .  A
C995       H1002   1.084       .  S
C996        C997   1.413       .  A
C997        C998   1.411       .  A
C997       C1004   1.517       .  S
C998        C999   1.410       .  A
C998       H1003   1.083       .  S
C999       C1000   1.423       .  A
C1000      C1001   1.520       .  S
C1001      F1005   1.385       .  S
C1001      F1006   1.384       .  S
C1001      F1007   1.382       .  S
C1004      F1008   1.382       .  S
C1004      F1009   1.384       .  S
C1004      F1010   1.384       .  S
C1011      C1012   1.396       .  A
C1011      C1016   1.398       .  A
C1011      H1018   1.084       .  S
C1012      C1013   1.407       .  A
C1013      C1014   1.394       .  A
C1013      C1020   1.518       .  S
C1014      C1015   1.405       .  A
C1014      H1019   1.084       .  S
C1015      C1016   1.419       .  A
C1016      C1017   1.520       .  S
C1017      F1021   1.385       .  S
C1017      F1022   1.383       .  S
C1017      F1023   1.383       .  S
C1020      F1024   1.382       .  S
C1020      F1025   1.384       .  S
C1020      F1026   1.385       .  S
C1027      C1028   1.403       .  A
C1027      C1032   1.399       .  A
C1027      H1034   1.083       .  S
C1028      C1029   1.415       .  A
C1029      C1030   1.394       .  A
C1029      C1036   1.522       .  S
C1030      C1031   1.399       .  A
C1030      H1035   1.083       .  S
C1031      C1032   1.409       .  A
C1032      C1033   1.514       .  S
C1033      F1037   1.385       .  S
C1033      F1038   1.383       .  S
C1033      F1039   1.381       .  S
C1036      F1040   1.384       .  S
C1036      F1041   1.383       .  S
C1036      F1042   1.385       .  S
C1043      C1044   1.412   1_545  A
C1043      C1048   1.405       .  A
C1043      H1050   1.080       .  S
C1044      C1045   1.421       .  A
C1045      C1046   1.410       .  A
C1045      C1052   1.519       .  S
C1046      C1047   1.406   1_565  A
C1046      H1051   1.083       .  S
C1047      C1048   1.418       .  A
C1048      C1049   1.522       .  S
C1049      F1053   1.385       .  S
C1049      F1054   1.384       .  S
C1049      F1055   1.383       .  S
C1052      F1056   1.384       .  S
C1052      F1057   1.382       .  S
C1052      F1058   1.384       .  S
C1059      C1060   1.401       .  A
C1059      C1064   1.402       .  A
C1059      H1066   1.084       .  S
C1060      C1061   1.413       .  A
C1061      C1062   1.407       .  A
C1061      C1068   1.518   1_565  S
C1062      C1063   1.405       .  A
C1062      H1067   1.083       .  S
C1063      C1064   1.417       .  A
C1064      C1065   1.520       .  S
C1065      F1069   1.385       .  S
C1065      F1070   1.383       .  S
C1065      F1071   1.383       .  S
C1068      F1072   1.383   1_545  S
C1068      F1073   1.383       .  S
C1068      F1074   1.385       .  S
C1075      C1076   1.409       .  A
C1075      C1080   1.399       .  A
C1075      H1082   1.080       .  S
C1076      C1077   1.410       .  A
C1077      C1078   1.397       .  A
C1077      C1084   1.515       .  S
C1078      C1079   1.408       .  A
C1078      H1083   1.084       .  S
C1079      C1080   1.413       .  A
C1080      C1081   1.521       .  S
C1081      F1085   1.383       .  S
C1081      F1086   1.385       .  S
C1081      F1087   1.383       .  S
C1084      F1088   1.383       .  S
C1084      F1089   1.383       .  S
C1084      F1090   1.385       .  S
C1091      C1092   1.403       .  A
C1091      C1096   1.406       .  A
C1091      H1098   1.084       .  S
C1092      C1093   1.418       .  A
C1093      C1094   1.411       .  A
C1093      C1100   1.518       .  S
C1094      C1095   1.404       .  A
C1094      H1099   1.083       .  S
C1095      C1096   1.418       .  A
C1096      C1097   1.519       .  S
C1097      F1101   1.385       .  S
C1097      F1102   1.384       .  S
C1097      F1103   1.382       .  S
C1100      F1104   1.382       .  S
C1100      F1105   1.384       .  S
C1100      F1106   1.384       .  S
C1107      C1108   1.396       .  A
C1107      C1112   1.401       .  A
C1107      H1114   1.085       .  S
C1108      C1109   1.409       .  A
C1109      C1110   1.403       .  A
C1109      C1116   1.516       .  S
C1110      C1111   1.407       .  A
C1110      H1115   1.083       .  S
C1111      C1112   1.423       .  A
C1112      C1113   1.517       .  S
C1113      F1117   1.384       .  S
C1113      F1118   1.383       .  S
C1113      F1119   1.381       .  S
C1116      F1120   1.382       .  S
C1116      F1121   1.383       .  S
C1116      F1122   1.385       .  S
C1123      C1124   1.410       .  A
C1123      C1128   1.411       .  A
C1123      H1130   1.083       .  S
C1124      C1125   1.417       .  A
C1125      C1126   1.412       .  A
C1125      C1132   1.518       .  S
C1126      C1127   1.405       .  A
C1126      H1131   1.083       .  S
C1127      C1128   1.412       .  A
C1128      C1129   1.517       .  S
C1129      F1133   1.384       .  S
C1129      F1134   1.384       .  S
C1129      F1135   1.383       .  S
C1132      F1136   1.384       .  S
C1132      F1137   1.382       .  S
C1132      F1138   1.384       .  S
C1139      C1140   1.401       .  A
C1139      C1144   1.408       .  A
C1139      H1146   1.083       .  S
C1140      C1141   1.417       .  A
C1141      C1142   1.402       .  A
C1141      C1148   1.519       .  S
C1142      C1143   1.400       .  A
C1142      H1147   1.083       .  S
C1143      C1144   1.418       .  A
C1144      C1145   1.518       .  S
C1145      F1149   1.384       .  S
C1145      F1150   1.383       .  S
C1145      F1151   1.384       .  S
C1148      F1152   1.381       .  S
C1148      F1153   1.382       .  S
C1148      F1154   1.385       .  S
C1155      C1156   1.399       .  A
C1155      C1160   1.410       .  A
C1155      H1162   1.083       .  S
C1156      C1157   1.414       .  A
C1157      C1158   1.406   1_655  A
C1157      C1164   1.516       .  S
C1158      C1159   1.404   1_455  A
C1158      H1163   1.083       .  S
C1159      C1160   1.424       .  A
C1160      C1161   1.519       .  S
C1161      F1165   1.385       .  S
C1161      F1166   1.383       .  S
C1161      F1167   1.382       .  S
C1164      F1168   1.382       .  S
C1164      F1169   1.382       .  S
C1164      F1170   1.385   1_655  S
C1171      C1172   1.407       .  A
C1171      C1176   1.399       .  A
C1171      H1178   1.083       .  S
C1172      C1173   1.419       .  A
C1173      C1174   1.405       .  A
C1173      C1180   1.519       .  S
C1174      C1175   1.400       .  A
C1174      H1179   1.084       .  S
C1175      C1176   1.408       .  A
C1176      C1177   1.517       .  S
C1177      F1181   1.385       .  S
C1177      F1182   1.383       .  S
C1177      F1183   1.380       .  S
C1180      F1184   1.383       .  S
C1180      F1185   1.383       .  S
C1180      F1186   1.385       .  S
C1187      C1188   1.409       .  A
C1187      C1192   1.393       .  A
C1187      H1194   1.084       .  S
C1188      C1189   1.429       .  A
C1189      C1190   1.407       .  A
C1189      C1196   1.515       .  S
C1190      C1191   1.396       .  A
C1190      H1195   1.084       .  S
C1191      C1192   1.409       .  A
C1192      C1193   1.520       .  S
C1193      F1197   1.384       .  S
C1193      F1198   1.383       .  S
C1193      F1199   1.383       .  S
C1196      F1200   1.379       .  S
C1196      F1201   1.383       .  S
C1196      F1202   1.385       .  S
C1203      C1204   1.402       .  A
C1203      C1208   1.409       .  A
C1203      H1210   1.084       .  S
C1204      C1205   1.416       .  A
C1205      C1206   1.405       .  A
C1205      C1212   1.518       .  S
C1206      C1207   1.402       .  A
C1206      H1211   1.083       .  S
C1207      C1208   1.418       .  A
C1208      C1209   1.518       .  S
C1209      F1213   1.385       .  S
C1209      F1214   1.384       .  S
C1209      F1215   1.382   1_455  S
C1212      F1216   1.385       .  S
C1212      F1217   1.383       .  S
C1212      F1218   1.381       .  S
C1219      C1220   1.403       .  A
C1219      C1224   1.404       .  A
C1219      H1226   1.083       .  S
C1220      C1221   1.415       .  A
C1221      C1222   1.409       .  A
C1221      C1228   1.516       .  S
C1222      C1223   1.405       .  A
C1222      H1227   1.083       .  S
C1223      C1224   1.418       .  A
C1224      C1225   1.520       .  S
C1225      F1229   1.384       .  S
C1225      F1230   1.383       .  S
C1225      F1231   1.383       .  S
C1228      F1232   1.382       .  S
C1228      F1233   1.383   1_655  S
C1228      F1234   1.385       .  S
C1235      C1236   1.400       .  A
C1235      C1240   1.403       .  A
C1235      H1242   1.084       .  S
C1236      C1237   1.409   1_655  A
C1237      C1238   1.404   1_455  A
C1237      C1244   1.515       .  S
C1238      C1239   1.405       .  A
C1238      H1243   1.083       .  S
C1239      C1240   1.419       .  A
C1240      C1241   1.520       .  S
C1241      F1245   1.385       .  S
C1241      F1246   1.384       .  S
C1241      F1247   1.383       .  S
C1244      F1248   1.383       .  S
C1244      F1249   1.382   1_455  S
C1244      F1250   1.384       .  S
C1251      C1252   1.406       .  A
C1251      C1256   1.400       .  A
C1251      H1258   1.083       .  S
C1252      C1253   1.422       .  A
C1253      C1254   1.399       .  A
C1253      C1260   1.519       .  S
C1254      C1255   1.396       .  A
C1254      H1259   1.084       .  S
C1255      C1256   1.411       .  A
C1256      C1257   1.519       .  S
C1257      F1261   1.384       .  S
C1257      F1262   1.382       .  S
C1257      F1263   1.384       .  S
C1260      F1264   1.382       .  S
C1260      F1265   1.383       .  S
C1260      F1266   1.385       .  S
C1267      C1268   1.405       .  A
C1267      C1272   1.411       .  A
C1267      H1274   1.083       .  S
C1268      C1269   1.421       .  A
C1269      C1270   1.410       .  A
C1269      C1276   1.520       .  S
C1270      C1271   1.403       .  A
C1270      H1275   1.083       .  S
C1271      C1272   1.417       .  A
C1272      C1273   1.518       .  S
C1273      F1277   1.385       .  S
C1273      F1278   1.384   1_556  S
C1273      F1279   1.382       .  S
C1276      F1280   1.382   1_556  S
C1276      F1281   1.383       .  S
C1276      F1282   1.385       .  S
C1283      C1284   1.398       .  A
C1283      C1288   1.408       .  A
C1283      H1290   1.083       .  S
C1284      C1285   1.415       .  A
C1285      C1286   1.413       .  A
C1285      C1292   1.516       .  S
C1286      C1287   1.406       .  A
C1286      H1291   1.083       .  S
C1287      C1288   1.423       .  A
C1288      C1289   1.518       .  S
C1289      F1293   1.385       .  S
C1289      F1294   1.379       .  S
C1289      F1295   1.383       .  S
C1292      F1296   1.383   1_554  S
C1292      F1297   1.383   1_554  S
C1292      F1298   1.385       .  S
C1299      C1300   1.401       .  A
C1299      C1304   1.407       .  A
C1299      H1306   1.083       .  S
C1300      C1301   1.415       .  A
C1301      C1302   1.407       .  A
C1301      C1308   1.517       .  S
C1302      C1303   1.401       .  A
C1302      H1307   1.083       .  S
C1303      C1304   1.416       .  A
C1304      C1305   1.519       .  S
C1305      F1309   1.384       .  S
C1305      F1310   1.382       .  S
C1305      F1311   1.382       .  S
C1308      F1312   1.382       .  S
C1308      F1313   1.382       .  S
C1308      F1314   1.384       .  S
C1315      C1316   1.400       .  A
C1315      C1320   1.408       .  A
C1315      H1322   1.082       .  S
C1316      C1317   1.416       .  A
C1317      C1318   1.406   1_545  A
C1317      C1324   1.521   1_545  S
C1318      C1319   1.412   1_565  A
C1318      H1323   1.082       .  S
C1319      C1320   1.427       .  A
C1320      C1321   1.518       .  S
C1321      F1325   1.385       .  S
C1321      F1326   1.381       .  S
C1321      F1327   1.381       .  S
C1324      F1328   1.382       .  S
C1324      F1329   1.384       .  S
C1324      F1330   1.385       .  S
C1331      C1332   1.404       .  A
C1331      C1336   1.407       .  A
C1331      H1338   1.083       .  S
C1332      C1333   1.421       .  A
C1333      C1334   1.401       .  A
C1333      C1340   1.521       .  S
C1334      C1335   1.398       .  A
C1334      H1339   1.084       .  S
C1335      C1336   1.416       .  A
C1336      C1337   1.519       .  S
C1337      F1341   1.384       .  S
C1337      F1342   1.384       .  S
C1337      F1343   1.383       .  S
C1340      F1344   1.381       .  S
C1340      F1345   1.383       .  S
C1340      F1346   1.385       .  S
C1347      C1348   1.402       .  A
C1347      C1352   1.400       .  A
C1347      H1354   1.084       .  S
C1348      C1349   1.415       .  A
C1349      C1350   1.404       .  A
C1349      C1356   1.518       .  S
C1350      C1351   1.402       .  A
C1350      H1355   1.085       .  S
C1351      C1352   1.412       .  A
C1352      C1353   1.518       .  S
C1353      F1357   1.382   1_565  S
C1353      F1358   1.382       .  S
C1353      F1359   1.385       .  S
C1356      F1360   1.383       .  S
C1356      F1361   1.383       .  S
C1356      F1362   1.383       .  S
C1363      C1364   1.397       .  A
C1363      C1368   1.402       .  A
C1363      H1370   1.084       .  S
C1364      C1365   1.409       .  A
C1365      C1366   1.405       .  A
C1365      C1372   1.516       .  S
C1366      C1367   1.406       .  A
C1366      H1371   1.083       .  S
C1367      C1368   1.422       .  A
C1368      C1369   1.522       .  S
C1369      F1373   1.385       .  S
C1369      F1374   1.381       .  S
C1369      F1375   1.383       .  S
C1372      F1376   1.382       .  S
C1372      F1377   1.382       .  S
C1372      F1378   1.384       .  S
C1379      C1380   1.403       .  A
C1379      C1384   1.405   1_565  A
C1379      H1386   1.084       .  S
C1380      C1381   1.414       .  A
C1381      C1382   1.408       .  A
C1381      C1388   1.516       .  S
C1382      C1383   1.402   1_565  A
C1382      H1387   1.083       .  S
C1383      C1384   1.414       .  A
C1384      C1385   1.518       .  S
C1385      F1389   1.384       .  S
C1385      F1390   1.384       .  S
C1385      F1391   1.381       .  S
C1388      F1392   1.384       .  S
C1388      F1393   1.382       .  S
C1388      F1394   1.384       .  S
C1395      C1396   1.407       .  A
C1395      C1400   1.416       .  A
C1395      H1402   1.083       .  S
C1396      C1397   1.418       .  A
C1397      C1398   1.408       .  A
C1397      C1404   1.519       .  S
C1398      C1399   1.411       .  A
C1398      H1403   1.082       .  S
C1399      C1400   1.429       .  A
C1400      C1401   1.521       .  S
C1401      F1405   1.385       .  S
C1401      F1406   1.383       .  S
C1401      F1407   1.383       .  S
C1404      F1408   1.384       .  S
C1404      F1409   1.382       .  S
C1404      F1410   1.385       .  S
C1411      C1412   1.401       .  A
C1411      C1416   1.402       .  A
C1411      H1418   1.084       .  S
C1412      C1413   1.415       .  A
C1413      C1414   1.399       .  A
C1413      C1420   1.521       .  S
C1414      C1415   1.400       .  A
C1414      H1419   1.084       .  S
C1415      C1416   1.414       .  A
C1416      C1417   1.519       .  S
C1417      F1421   1.384       .  S
C1417      F1422   1.383       .  S
C1417      F1423   1.381       .  S
C1420      F1424   1.384       .  S
C1420      F1425   1.382       .  S
C1420      F1426   1.384       .  S
C1427      C1428   1.407       .  A
C1427      C1432   1.402       .  A
C1427      H1434   1.083       .  S
C1428      C1429   1.418       .  A
C1429      C1430   1.411       .  A
C1429      C1436   1.517       .  S
C1430      C1431   1.403       .  A
C1430      H1435   1.083       .  S
C1431      C1432   1.410       .  A
C1432      C1433   1.518       .  S
C1433      F1437   1.385       .  S
C1433      F1438   1.383       .  S
C1433      F1439   1.383       .  S
C1436      F1440   1.384       .  S
C1436      F1441   1.382       .  S
C1436      F1442   1.384       .  S
C1443      C1444   1.405       .  A
C1443      C1448   1.406       .  A
C1443      H1450   1.083       .  S
C1444      C1445   1.421       .  A
C1445      C1446   1.408       .  A
C1445      C1452   1.519       .  S
C1446      C1447   1.400       .  A
C1446      H1451   1.083       .  S
C1447      C1448   1.414       .  A
C1448      C1449   1.517       .  S
C1449      F1453   1.385       .  S
C1449      F1454   1.382       .  S
C1449      F1455   1.382       .  S
C1452      F1456   1.384       .  S
C1452      F1457   1.382       .  S
C1452      F1458   1.384       .  S
C1459      C1460   1.406       .  A
C1459      C1464   1.411       .  A
C1459      H1466   1.082       .  S
C1460      C1461   1.418       .  A
C1461      C1462   1.406       .  A
C1461      C1468   1.520       .  S
C1462      C1463   1.411       .  A
C1462      H1467   1.081       .  S
C1463      C1464   1.428       .  A
C1464      C1465   1.523       .  S
C1465      F1469   1.385       .  S
C1465      F1470   1.383       .  S
C1465      F1471   1.383       .  S
C1468      F1472   1.383       .  S
C1468      F1473   1.382       .  S
C1468      F1474   1.385       .  S
C1475      C1476   1.399       .  A
C1475      C1480   1.406       .  A
C1475      H1482   1.083       .  S
C1476      C1477   1.409       .  A
C1477      C1478   1.404       .  A
C1477      C1484   1.517       .  S
C1478      C1479   1.408       .  A
C1478      H1483   1.083       .  S
C1479      C1480   1.422       .  A
C1480      C1481   1.520       .  S
C1481      F1485   1.385       .  S
C1481      F1486   1.383       .  S
C1481      F1487   1.383       .  S
C1484      F1488   1.383       .  S
C1484      F1489   1.381       .  S
C1484      F1490   1.385       .  S
C1491      C1492   1.396       .  A
C1491      C1496   1.402       .  A
C1491      H1498   1.084       .  S
C1492      C1493   1.402       .  A
C1493      C1494   1.395       .  A
C1493      C1500   1.519       .  S
C1494      C1495   1.410       .  A
C1494      H1499   1.082       .  S
C1495      C1496   1.424       .  A
C1496      C1497   1.522       .  S
C1497      F1501   1.382       .  S
C1497      F1502   1.385       .  S
C1497      F1503   1.383       .  S
C1500      F1504   1.384       .  S
C1500      F1505   1.383       .  S
C1500      F1506   1.384       .  S
C1507      C1508   1.400       .  A
C1507      C1512   1.398       .  A
C1507      H1514   1.085       .  S
C1508      C1509   1.413       .  A
C1509      C1510   1.401       .  A
C1509      C1516   1.518       .  S
C1510      C1511   1.403       .  A
C1510      H1515   1.084       .  S
C1511      C1512   1.414       .  A
C1512      C1513   1.516       .  S
C1513      F1517   1.384       .  S
C1513      F1518   1.383       .  S
C1513      F1519   1.382       .  S
C1516      F1520   1.381       .  S
C1516      F1521   1.384       .  S
C1516      F1522   1.385       .  S
C1523      C1524   1.403   1_556  A
C1523      C1528   1.404       .  A
C1523      H1530   1.083   1_565  S
C1524      C1525   1.419       .  A
C1525      C1526   1.406       .  A
C1525      C1532   1.520       .  S
C1526      C1527   1.404   1_554  A
C1526      H1531   1.082       .  S
C1527      C1528   1.419       .  A
C1528      C1529   1.521   1_565  S
C1529      F1533   1.385       .  S
C1529      F1534   1.382   1_545  S
C1529      F1535   1.384       .  S
C1532      F1536   1.383       .  S
C1532      F1537   1.382   1_565  S
C1532      F1538   1.385       .  S
C1539      C1540   1.398       .  A
C1539      C1544   1.403       .  A
C1539      H1546   1.084       .  S
C1540      C1541   1.413       .  A
C1541      C1542   1.403       .  A
C1541      C1548   1.516       .  S
C1542      C1543   1.401       .  A
C1542      H1547   1.083       .  S
C1543      C1544   1.421       .  A
C1544      C1545   1.521       .  S
C1545      F1549   1.385       .  S
C1545      F1550   1.383       .  S
C1545      F1551   1.382       .  S
C1548      F1552   1.383       .  S
C1548      F1553   1.381   1_556  S
C1548      F1554   1.385       .  S
C1555      C1556   1.408       .  A
C1555      C1560   1.413       .  A
C1555      H1562   1.081       .  S
C1556      C1557   1.419   1_655  A
C1557      C1558   1.411       .  A
C1557      C1564   1.519   1_554  S
C1558      C1559   1.408   1_455  A
C1558      H1563   1.083       .  S
C1559      C1560   1.419       .  A
C1560      C1561   1.519       .  S
C1561      F1565   1.385       .  S
C1561      F1566   1.383   1_554  S
C1561      F1567   1.382       .  S
C1564      F1568   1.382       .  S
C1564      F1569   1.384   1_556  S
C1564      F1570   1.385   1_556  S
C1571      C1572   1.404       .  A
C1571      C1576   1.408       .  A
C1571      H1578   1.083       .  S
C1572      C1573   1.422       .  A
C1573      C1574   1.407       .  A
C1573      C1580   1.517       .  S
C1574      C1575   1.400       .  A
C1574      H1579   1.085       .  S
C1575      C1576   1.417       .  A
C1576      C1577   1.517       .  S
C1577      F1581   1.385       .  S
C1577      F1582   1.380       .  S
C1577      F1583   1.383       .  S
C1580      F1584   1.383       .  S
C1580      F1585   1.382   1_556  S
C1580      F1586   1.385       .  S
C1587      C1588   1.405       .  A
C1587      C1592   1.407       .  A
C1587      H1594   1.083       .  S
C1588      C1589   1.423       .  A
C1589      C1590   1.404       .  A
C1589      C1596   1.522       .  S
C1590      C1591   1.403       .  A
C1590      H1595   1.083       .  S
C1591      C1592   1.420       .  A
C1592      C1593   1.521       .  S
C1593      F1597   1.385       .  S
C1593      F1598   1.383       .  S
C1593      F1599   1.382       .  S
C1596      F1600   1.383       .  S
C1596      F1601   1.383       .  S
C1596      F1602   1.385       .  S
C1603      C1604   1.399       .  A
C1603      C1608   1.401       .  A
C1603      H1610   1.083       .  S
C1604      C1605   1.416       .  A
C1605      C1606   1.404   1_565  A
C1605      C1612   1.519       .  S
C1606      C1607   1.401       .  A
C1606      H1611   1.084       .  S
C1607      C1608   1.416   1_545  A
C1608      C1609   1.518       .  S
C1609      F1613   1.384       .  S
C1609      F1614   1.383       .  S
C1609      F1615   1.381   1_565  S
C1612      F1616   1.384       .  S
C1612      F1617   1.382   1_565  S
C1612      F1618   1.385       .  S
C1619      C1620   1.404       .  A
C1619      C1624   1.407       .  A
C1619      H1626   1.083       .  S
C1620      C1621   1.420       .  A
C1621      C1622   1.404       .  A
C1621      C1628   1.521       .  S
C1622      C1623   1.404       .  A
C1622      H1627   1.083       .  S
C1623      C1624   1.418       .  A
C1624      C1625   1.519       .  S
C1625      F1629   1.385       .  S
C1625      F1630   1.383       .  S
C1625      F1631   1.382       .  S
C1628      F1632   1.383       .  S
C1628      F1633   1.384       .  S
C1628      F1634   1.385       .  S
C1635      C1636   1.398   1_655  A
C1635      C1640   1.406       .  A
C1635      H1642   1.083       .  S
C1636      C1637   1.412       .  A
C1637      C1638   1.406       .  A
C1637      C1644   1.518       .  S
C1638      C1639   1.411       .  A
C1638      H1643   1.082       .  S
C1639      C1640   1.427   1_455  A
C1640      C1641   1.517       .  S
C1641      F1645   1.385       .  S
C1641      F1646   1.382       .  S
C1641      F1647   1.381       .  S
C1644      F1648   1.383       .  S
C1644      F1649   1.382       .  S
C1644      F1650   1.385       .  S
C1651      C1652   1.404       .  A
C1651      C1656   1.399       .  A
C1651      H1658   1.083       .  S
C1652      C1653   1.417       .  A
C1653      C1654   1.409       .  A
C1653      C1660   1.519       .  S
C1654      C1655   1.403       .  A
C1654      H1659   1.083   1_554  S
C1655      C1656   1.410       .  A
C1656      C1657   1.519   1_545  S
C1657      F1661   1.385       .  S
C1657      F1662   1.383       .  S
C1657      F1663   1.381       .  S
C1660      F1664   1.384       .  S
C1660      F1665   1.381       .  S
C1660      F1666   1.384   1_554  S
C1667      C1668   1.407       .  A
C1667      C1672   1.399       .  A
C1667      H1674   1.079       .  S
C1668      C1669   1.420       .  A
C1669      C1670   1.413       .  A
C1669      C1676   1.517       .  S
C1670      C1671   1.410       .  A
C1670      H1675   1.083   1_655  S
C1671      C1672   1.418       .  A
C1672      C1673   1.520       .  S
C1673      F1677   1.383   1_554  S
C1673      F1678   1.382       .  S
C1673      F1679   1.386       .  S
C1676      F1680   1.384       .  S
C1676      F1681   1.382   1_655  S
C1676      F1682   1.384   1_655  S
C1683      C1684   1.403       .  A
C1683      C1688   1.404       .  A
C1683      H1690   1.084       .  S
C1684      C1685   1.416       .  A
C1685      C1686   1.406       .  A
C1685      C1692   1.519       .  S
C1686      C1687   1.403       .  A
C1686      H1691   1.083       .  S
C1687      C1688   1.414       .  A
C1688      C1689   1.519   1_545  S
C1689      F1693   1.384       .  S
C1689      F1694   1.384       .  S
C1689      F1695   1.383       .  S
C1692      F1696   1.384       .  S
C1692      F1697   1.382       .  S
C1692      F1698   1.384       .  S
C1699      C1700   1.406       .  A
C1699      C1704   1.401       .  A
C1699      H1706   1.083       .  S
C1700      C1701   1.418       .  A
C1701      C1702   1.407       .  A
C1701      C1708   1.521       .  S
C1702      C1703   1.408       .  A
C1702      H1707   1.083   1_655  S
C1703      C1704   1.420       .  A
C1704      C1705   1.523       .  S
C1705      F1709   1.385       .  S
C1705      F1710   1.384   1_655  S
C1705      F1711   1.383       .  S
C1708      F1712   1.384       .  S
C1708      F1713   1.383       .  S
C1708      F1714   1.385       .  S
C1715      C1716   1.407       .  A
C1715      C1720   1.399       .  A
C1715      H1722   1.082       .  S
C1716      C1717   1.415       .  A
C1717      C1718   1.402       .  A
C1717      C1724   1.520       .  S
C1718      C1719   1.409       .  A
C1718      H1723   1.083       .  S
C1719      C1720   1.415       .  A
C1720      C1721   1.520       .  S
C1721      F1725   1.385       .  S
C1721      F1726   1.383       .  S
C1721      F1727   1.382       .  S
C1724      F1728   1.382       .  S
C1724      F1729   1.384       .  S
C1724      F1730   1.385       .  S
C1731      C1732   1.411       .  A
C1731      C1736   1.401       .  A
C1731      H1738   1.081       .  S
C1732      C1733   1.418       .  A
C1733      C1734   1.398       .  A
C1733      C1740   1.515   1_655  S
C1734      C1735   1.400       .  A
C1734      H1739   1.085   1_655  S
C1735      C1736   1.410       .  A
C1736      C1737   1.520       .  S
C1737      F1741   1.385       .  S
C1737      F1742   1.383       .  S
C1737      F1743   1.382       .  S
C1740      F1744   1.383       .  S
C1740      F1745   1.382   1_455  S
C1740      F1746   1.385       .  S
