geometry optimzed in LAMMPS
_audit_creation_date              2020-12-01 
_audit_creation_method            'lammps2cif' 
_symmetry_space_group_name_H-M    'P1' 
_symmetry_Int_Tables_number       1 
_symmetry_cell_setting            triclinic 
loop_ 
_symmetry_equiv_pos_as_xyz 
  x,y,z 
_cell_length_a                    32.28873897 
_cell_length_b                    32.26469032283661 
_cell_length_c                    57.01061224277912 
_cell_angle_alpha                 89.9337693819544 
_cell_angle_beta                  89.77090886132925 
_cell_angle_gamma                 121.52736657034487 
loop_ 
_atom_site_label 
_atom_site_type_symbol 
_atom_site_fract_x 
_atom_site_fract_y 
_atom_site_fract_z 
_atom_site_charge 
N1          N  0.66271148  0.82755818  0.28205304    -0.27400
N2          N  0.70028005  0.82983207  0.29262512    -0.35300
C3          C  0.69455674  0.82961581  0.31591716     0.00900
C4          C  0.65168091  0.82758689  0.32046194     0.06900
C5          C  0.63199225  0.82604533  0.29867569    -0.06200
H6          H  0.71928052  0.82953798  0.32865828     0.07600
H7          H  0.59712205  0.82192295  0.29519607     0.08800
Cu8        Cu  0.75770459  0.83082711  0.27625187     0.44200
Cu9        Cu  0.65391203  0.82176973  0.24553255     0.42000
Cu10       Cu  0.73701531  0.78781237  0.21967926     0.43900
N11         N  0.81265791  0.83518752  0.25597236    -0.34800
N12         N  0.80465203  0.81740054  0.23455446    -0.29100
C13         C  0.84732922  0.83623026  0.22313676    -0.05200
C14         C  0.88387798  0.86816484  0.23808357     0.07000
C15         C  0.86052287  0.86590062  0.25885221     0.00800
H16         H  0.85073521  0.83290219  0.20444798     0.08500
H17         H  0.87634658  0.89024160  0.27362837     0.07600
N18         N  0.68283683  0.78999293  0.20184754    -0.36300
N19         N  0.65555417  0.80639182  0.20992587    -0.28400
C20         C  0.63114145  0.81046163  0.19170973    -0.03700
C21         C  0.64357243  0.79523100  0.17154694     0.04900
C22         C  0.67608491  0.78246037  0.17874559     0.03000
H23         H  0.60645970  0.82350646  0.19303274     0.08100
H24         H  0.69562577  0.77103706  0.16778008     0.07000
N25         N  0.26456282  0.49317747  0.28353471    -0.27400
N26         N  0.22051313  0.46789144  0.29290086    -0.35300
C27         C  0.22371572  0.46870663  0.31624602     0.00900
C28         C  0.27193108  0.49535669  0.32240102     0.06900
C29         C  0.29728356  0.51053467  0.30123616    -0.06200
H30         H  0.19272526  0.44987785  0.32795045     0.07600
H31         H  0.33620334  0.53290770  0.29891223     0.08800
Cu32       Cu  0.15587559  0.42649643  0.27572540     0.44200
Cu33       Cu  0.27539536  0.50178259  0.24690271     0.42000
Cu34       Cu  0.15314357  0.44326716  0.21894566     0.43900
N35         N  0.10163248  0.37229721  0.25617169    -0.34800
N36         N  0.09893565  0.37922051  0.23363113    -0.29100
C37         C  0.07705851  0.33596291  0.22271917    -0.05200
C38         C  0.06816230  0.30038403  0.23913383     0.07000
C39         C  0.08264846  0.32477292  0.26026114     0.00800
H40         H  0.07783985  0.33212869  0.20390033     0.08500
H41         H  0.08888868  0.31070743  0.27623525     0.07600
N42         N  0.21903397  0.48268961  0.20186142    -0.36300
N43         N  0.26313219  0.50008951  0.21049693    -0.28400
C44         C  0.29468145  0.51275622  0.19223850    -0.03700
C45         C  0.26862170  0.50278967  0.17146980     0.04900
C46         C  0.22126070  0.48422979  0.17849149     0.03000
H47         H  0.33313106  0.52680062  0.19393179     0.08100
H48         H  0.18953922  0.46917578  0.16738457     0.07000
N49         N  0.27830488  0.85039346  0.21251897    -0.27400
N50         N  0.28322968  0.88901961  0.20168032    -0.35300
C51         C  0.28349429  0.88338614  0.17848038     0.00900
C52         C  0.27807585  0.83898030  0.17405146     0.06900
C53         C  0.27479392  0.81857439  0.19600107    -0.06200
H54         H  0.28927518  0.91080882  0.16568627     0.07600
H55         H  0.27324388  0.78489204  0.19965942     0.08800
Cu56       Cu  0.29395803  0.95109560  0.21715492     0.44200
Cu57       Cu  0.28390057  0.84850334  0.24926165     0.42000
Cu58       Cu  0.33412433  0.97316582  0.27377972     0.43900
N59         N  0.30299526  0.01038921  0.23486757    -0.34800
N60         N  0.31959634  0.02011331  0.25646064    -0.29100
C61         C  0.31346390  0.05529112  0.26519222    -0.05200
C62         C  0.29110765  0.06762602  0.24818987     0.07000
C63         C  0.28552873  0.03859520  0.22915714     0.00800
H64         H  0.32054452  0.06751349  0.28321508     0.08500
H65         H  0.26553851  0.03460342  0.21329328     0.07600
N66         N  0.32475641  0.91367721  0.29200701    -0.36300
N67         N  0.30312085  0.86813268  0.28458127    -0.28400
C68         C  0.29784036  0.83943329  0.30309881    -0.03700
C69         C  0.31790003  0.86882198  0.32266996     0.04900
C70         C  0.33462225  0.91532683  0.31487357     0.03000
H71         H  0.28114884  0.80036765  0.30233521     0.08100
H72         H  0.35091936  0.94806246  0.32533069     0.07000
C73         C  0.14473764  0.10732787  0.23814968     0.80100
N74         N  0.13565952  0.14386618  0.23862361    -0.78200
C75         C  0.09007455  0.13428004  0.23428497     0.82500
N76         N  0.05356564  0.08767395  0.23055349    -0.78200
C77         C  0.06230467  0.05075884  0.23018069     0.82600
N78         N  0.10822731  0.06117490  0.23364261    -0.79900
N79         N  0.76172693  0.16678384  0.94676162    -0.27400
N80         N  0.77750323  0.18990398  0.96689836    -0.35300
C81         C  0.74407299  0.16367126  0.98365474     0.00900
C82         C  0.70594051  0.12220762  0.97329273     0.06900
C83         C  0.71871033  0.12556870  0.94996456    -0.06200
H84         H  0.74612562  0.17505394  0.00167106     0.07600
H85         H  0.69678883  0.10158781  0.93598373     0.08800
Cu86       Cu  0.84230528  0.25820627  0.96830526     0.44200
Cu87       Cu  0.79404576  0.19554355  0.91501992     0.42000
Cu88       Cu  0.89891950  0.31217084  0.90945884     0.43900
N89         N  0.90740630  0.32509317  0.96260363    -0.34800
N90         N  0.92721133  0.34309653  0.94177751    -0.29100
C91         C  0.96752345  0.38709421  0.94457262    -0.05200
C92         C  0.97353185  0.39783776  0.96815924     0.07000
C93         C  0.93486052  0.35783067  0.97912706     0.00800
H94         H  0.98943847  0.41062155  0.93030013     0.08500
H95         H  0.92626368  0.35362313  0.99766987     0.07600
N96         N  0.86163581  0.27133141  0.88047036    -0.36300
N97         N  0.82251925  0.22770937  0.88321178    -0.28400
C98         C  0.80703166  0.20685339  0.86226958    -0.03700
C99         C  0.83788043  0.23860383  0.84531052     0.04900
C100        C  0.87224120  0.27953953  0.85736958     0.03000
H101        H  0.77681297  0.16998028  0.85973526     0.08100
H102        H  0.90411705  0.31116396  0.85013891     0.07000
N103        N  0.27370583  0.49836184  0.10827364    -0.27400
N104        N  0.31558400  0.50213959  0.11267218    -0.35300
C105        C  0.32284837  0.50672982  0.13619757     0.00900
C106        C  0.28315422  0.50572088  0.14661847     0.06900
C107        C  0.25332606  0.50068453  0.12821788    -0.06200
H108        H  0.35337176  0.50864513  0.14503730     0.07600
H109        H  0.21831327  0.49746305  0.12917910     0.08800
Cu110      Cu  0.35490375  0.49828581  0.08426102     0.44200
Cu111      Cu  0.24335716  0.48822784  0.07587886     0.42000
Cu112      Cu  0.30449007  0.50172989  0.02351712     0.43900
N113        N  0.38291860  0.49471257  0.05146517    -0.34800
N114        N  0.36665252  0.49714140  0.03042264    -0.29100
C115        C  0.39700150  0.49712182  0.01401220    -0.05200
C116        C  0.43363173  0.49417553  0.02508811     0.07000
C117        C  0.42330853  0.49266860  0.04875752     0.00800
H118        H  0.39363239  0.50073522  0.99536446     0.08500
H119        H  0.44510920  0.49262756  0.06312639     0.07600
N120        N  0.23729027  0.49880057  0.02432497    -0.36300
N121        N  0.21431822  0.49049029  0.04457670    -0.28400
C122        C  0.17320621  0.49057164  0.04182081    -0.03700
C123        C  0.16933679  0.49986532  0.01862647     0.04900
C124        C  0.21083125  0.50510006  0.00783915     0.03000
H125        H  0.14928612  0.48708552  0.05608448     0.08100
H126        H  0.22157184  0.51428921  0.98969285     0.07000
N127        N  0.92622308  0.58123147  0.94765590    -0.27400
N128        N  0.90294533  0.57251162  0.96787178    -0.35300
C129        C  0.92803109  0.56416549  0.98427184     0.00900
C130        C  0.96894681  0.56825299  0.97358077     0.06900
C131        C  0.96640105  0.57937026  0.95047545    -0.06200
H132        H  0.91644314  0.55398107  0.00226650     0.07600
H133        H  0.99042227  0.58271623  0.93628180     0.08800
Cu134      Cu  0.83610252  0.56950042  0.96954327     0.44200
Cu135      Cu  0.89850967  0.58601030  0.91612812     0.42000
Cu136      Cu  0.78715928  0.57968521  0.91053957     0.43900
N137        N  0.77100730  0.56875710  0.96402494    -0.34800
N138        N  0.75502427  0.57350937  0.94336438    -0.29100
C139        C  0.71190182  0.56990428  0.94642225    -0.05200
C140        C  0.69952177  0.56217463  0.96994135     0.07000
C141        C  0.73782513  0.56164508  0.98060165     0.00800
H142        H  0.69003911  0.57075021  0.93229508     0.08500
H143        H  0.74069631  0.55513300  0.99896444     0.07600
N144        N  0.82617519  0.58007056  0.88110067    -0.36300
N145        N  0.86738145  0.58153275  0.88416216    -0.28400
C146        C  0.88724690  0.58305840  0.86333857    -0.03700
C147        C  0.85775776  0.58318892  0.84590655     0.04900
C148        C  0.81883229  0.58098900  0.85774963     0.03000
H149        H  0.92202823  0.58624453  0.86115177     0.08100
H150        H  0.78922526  0.58271884  0.85011480     0.07000
O151        O  0.09142265  0.58551554  0.02679042    -0.73100
O152        O  0.00427938  0.45299100  0.00007125    -0.74100
O153        O  0.09679111  0.50142693  0.02297946    -0.62700
O154        O  0.99987534  0.53853778  0.00325298    -0.71100
O155        O  0.03972382  0.56396040  0.96941576    -0.70600
O156        O  0.13557708  0.52609404  0.98885020    -0.61900
O157        O  0.04267037  0.47818027  0.96583508    -0.74400
O158        O  0.13124646  0.61133723  0.99291691    -0.73200
Cu159      Cu  0.04678576  0.51867175  0.01445491     1.04600
Cu160      Cu  0.08856560  0.54574410  0.97803348     1.04300
C161        C  0.12565547  0.61885084  0.01438961     0.93100
C162        C  0.00886999  0.44496985  0.97859559     0.92300
C163        C  0.13194070  0.50899165  0.00947090     0.84400
C164        C  0.00462734  0.55678997  0.98277429     0.90700
O165        O  0.64264801  0.53759352  0.00182780    -0.73100
O166        O  0.50947049  0.49780169  0.02758133    -0.74100
O167        O  0.55246087  0.44789802  0.00515246    -0.62700
O168        O  0.59949540  0.58623634  0.02416104    -0.71100
O169        O  0.57783291  0.60151935  0.98987153    -0.70600
O170        O  0.53283704  0.46398988  0.97051559    -0.61900
O171        O  0.48835040  0.51198350  0.99289396    -0.74400
O172        O  0.62169245  0.55349735  0.96750647    -0.73200
Cu173      Cu  0.57665179  0.51679943  0.01589782     1.04600
Cu174      Cu  0.55436574  0.53306555  0.97900354     1.04300
C175        C  0.65270305  0.55104449  0.98038166     0.93100
C176        C  0.47881567  0.50070916  0.01458382     0.92300
C177        C  0.53729014  0.43506454  0.98419349     0.84400
C178        C  0.59478098  0.61503168  0.01051603     0.90700
N179        N  0.37302957  0.89128585  0.04995120    -0.27400
N180        N  0.35798027  0.86711137  0.03003803    -0.35300
C181        C  0.39230464  0.89127271  0.01342847     0.00900
C182        C  0.43048455  0.93266928  0.02355848     0.06900
C183        C  0.41687040  0.93144895  0.04665516    -0.06200
H184        H  0.39050250  0.87862385  0.99567641     0.07600
H185        H  0.43843456  0.95644330  0.06042236     0.08800
Cu186      Cu  0.29279617  0.80090201  0.02811939     0.44200
Cu187      Cu  0.33736797  0.86546223  0.08157415     0.42000
Cu188      Cu  0.22963975  0.74974250  0.08571482     0.43900
N189        N  0.22642959  0.73648308  0.03254582    -0.34800
N190        N  0.20389058  0.71882859  0.05288829    -0.29100
C191        C  0.16318741  0.67557731  0.04915179    -0.05200
C192        C  0.16012026  0.66533364  0.02547511     0.07000
C193        C  0.20068480  0.70466883  0.01544868     0.00800
H194        H  0.13899746  0.65211954  0.06287134     0.08500
H195        H  0.21187955  0.70892188  0.99725606     0.07600
N196        N  0.26480923  0.79059340  0.11530556    -0.36300
N197        N  0.30462791  0.83394327  0.11315747    -0.28400
C198        C  0.31735180  0.85512623  0.13423807    -0.03700
C199        C  0.28429342  0.82368718  0.15070598     0.04900
C200        C  0.25117310  0.78293598  0.13811164     0.03000
H201        H  0.34655108  0.89217291  0.13711607     0.08100
H202        H  0.21751761  0.75218524  0.14463256     0.07000
N203        N  0.52789245  0.17088149  0.94440773    -0.27400
N204        N  0.52947201  0.19010372  0.96523922    -0.35300
C205        C  0.53397258  0.16282864  0.98190264     0.00900
C206        C  0.53495372  0.12477657  0.97111903     0.06900
C207        C  0.53071284  0.13106672  0.94745764    -0.06200
H208        H  0.53779064  0.17097727  0.00044008     0.07600
H209        H  0.53225810  0.10963891  0.93325825     0.08800
Cu210      Cu  0.52842911  0.25444135  0.97104242     0.44200
Cu211      Cu  0.52866793  0.19990413  0.91135540     0.42000
Cu212      Cu  0.53215199  0.30922633  0.91727526     0.43900
N213        N  0.52700467  0.31920231  0.96915144    -0.34800
N214        N  0.52618558  0.33705474  0.94843916    -0.29100
C215        C  0.52645391  0.37844396  0.95106657    -0.05200
C216        C  0.52817139  0.38836992  0.97466745     0.07000
C217        C  0.52871511  0.35005395  0.98578963     0.00800
H218        H  0.52865752  0.40146482  0.93667327     0.08500
H219        H  0.53203584  0.34602857  0.00439263     0.07600
N220        N  0.53909434  0.28439802  0.88541628    -0.36300
N221        N  0.53652227  0.24268936  0.88207077    -0.28400
C222        C  0.53725519  0.23574846  0.85865894    -0.03700
C223        C  0.54030201  0.27538340  0.84714189     0.04900
C224        C  0.54164940  0.30521164  0.86478485     0.03000
H225        H  0.53278470  0.20327254  0.85069796     0.08100
H226        H  0.54161608  0.33858487  0.86281354     0.07000
N227        N  0.60217165  0.87665158  0.05091232    -0.27400
N228        N  0.60014494  0.85796338  0.02991220    -0.35300
C229        C  0.59680691  0.88654756  0.01359812     0.00900
C230        C  0.59731392  0.92503613  0.02484320     0.06900
C231        C  0.60075839  0.91736036  0.04839735    -0.06200
H232        H  0.59348755  0.87945359  0.99496074     0.07600
H233        H  0.60064637  0.93906230  0.06286483     0.08800
Cu234      Cu  0.60185425  0.79405765  0.02389887     0.44200
Cu235      Cu  0.60509456  0.84777715  0.08318959     0.42000
Cu236      Cu  0.62681059  0.75276944  0.07687539     0.43900
N237        N  0.60846819  0.73222385  0.02542044    -0.29800
N238        N  0.61985014  0.71953765  0.04529158    -0.29100
C239        C  0.61946235  0.67813317  0.04234723    -0.05200
C240        C  0.60687346  0.66302527  0.01950215     0.07000
C241        C  0.60011954  0.69822262  0.00911583     0.00800
H242        H  0.62471741  0.65864976  0.05635378     0.08500
H243        H  0.58771004  0.69775330  0.99148401     0.07600
N244        N  0.62364482  0.77928864  0.10905459    -0.36300
N245        N  0.61444740  0.81420781  0.11218409    -0.28400
C246        C  0.61706012  0.82411154  0.13536632    -0.03700
C247        C  0.62884096  0.79382730  0.14703448     0.04900
C248        C  0.63258324  0.76604656  0.12975607     0.03000
H249        H  0.61376957  0.85294150  0.14288978     0.08100
H250        H  0.64289469  0.73938741  0.13192119     0.07000
O251        O  0.59513920  0.99783151  0.02761112    -0.73100
O252        O  0.55963172  0.09323286  0.00272130    -0.74100
O253        O  0.50985824  0.00149232  0.02658873    -0.62700
O254        O  0.64665529  0.09102866  0.00405099    -0.71100
O255        O  0.62670039  0.05227022  0.96997273    -0.70600
O256        O  0.48958874  0.96184121  0.99273599    -0.61900
O257        O  0.54010312  0.05392607  0.96881599    -0.74400
O258        O  0.57615695  0.95957313  0.99342301    -0.73200
Cu259      Cu  0.57855207  0.04721592  0.01643547     1.04600
Cu260      Cu  0.55754325  0.00563675  0.98004163     1.04300
C261        C  0.58981988  0.96290587  0.01469605     0.93100
C262        C  0.54485378  0.08875131  0.98154939     0.92300
C263        C  0.47862825  0.96714530  0.01362725     0.84400
C264        C  0.65782687  0.08651770  0.98310076     0.90700
N265        N  0.52501823  0.27862786  0.78342972    -0.27400
N266        N  0.50789103  0.30516463  0.79168680    -0.35300
C267        C  0.51249536  0.30828531  0.81497831     0.00900
C268        C  0.53283912  0.28217300  0.82225932     0.06900
C269        C  0.54047429  0.26357917  0.80180659    -0.06200
H270        H  0.49850586  0.32556921  0.82603115     0.07600
H271        H  0.55536199  0.24044369  0.80042350     0.08800
Cu272      Cu  0.46488593  0.32499880  0.77443943     0.44200
Cu273      Cu  0.52400520  0.26411216  0.74739230     0.42000
Cu274      Cu  0.42672200  0.27328972  0.72094620     0.43900
N275        N  0.39521370  0.30108009  0.76362481    -0.34800
N276        N  0.38002369  0.27785521  0.74356423    -0.29100
C277        C  0.33167387  0.24828887  0.74432177    -0.05200
C278        C  0.31531356  0.25265298  0.76608818     0.07000
C279        C  0.35662774  0.28760456  0.77767593     0.00800
H280        H  0.31095927  0.22032040  0.73146365     0.08500
H281        H  0.35933084  0.29682570  0.79607764     0.07600
N282        N  0.47863866  0.26926234  0.70219204    -0.36300
N283        N  0.51374645  0.26439032  0.71097546    -0.28400
C284        C  0.54161191  0.26521285  0.69297662    -0.03700
C285        C  0.52299206  0.27161027  0.67227502     0.04900
C286        C  0.48337821  0.27402317  0.67888306     0.03000
H287        H  0.57438382  0.26417501  0.69491351     0.08100
H288        H  0.46017499  0.28015491  0.66757238     0.07000
N289        N  0.88898060  0.23904733  0.71278629    -0.27400
N290        N  0.88608865  0.20062090  0.70279352    -0.35300
C291        C  0.88417401  0.20425718  0.67946762     0.00900
C292        C  0.88669810  0.24726775  0.67437134     0.06900
C293        C  0.88988163  0.26871434  0.69583081    -0.06200
H294        H  0.87925885  0.17653915  0.66715278     0.07600
H295        H  0.88894335  0.30129320  0.69895514     0.08800
Cu296      Cu  0.88023410  0.14188547  0.72033572     0.44200
Cu297      Cu  0.88143545  0.24365674  0.74884737     0.42000
Cu298      Cu  0.82042251  0.11934505  0.77312779     0.43900
N299        N  0.87299898  0.08815129  0.74256392    -0.34800
N300        N  0.84758566  0.07750296  0.76215835    -0.29100
C301        C  0.85804203  0.05035502  0.77590578    -0.05200
C302        C  0.89264760  0.04461129  0.76452633     0.07000
C303        C  0.90072801  0.06849587  0.74328951     0.00800
H304        H  0.84719894  0.04206293  0.79411413     0.08500
H305        H  0.92948119  0.07671487  0.73086008     0.07600
N306        N  0.82938014  0.17939007  0.79038141    -0.36300
N307        N  0.85560834  0.22510327  0.78316212    -0.28400
C308        C  0.86207654  0.25448430  0.80144321    -0.03700
C309        C  0.83826309  0.22535660  0.82075567     0.04900
C310        C  0.81794008  0.17828330  0.81301073     0.03000
H311        H  0.88332419  0.29378072  0.80084503     0.08100
H312        H  0.79944331  0.14553514  0.82348163     0.07000
C313        C  0.05242660  0.02848631  0.79361930     0.80100
N314        N  0.05721109  0.98923248  0.79344951    -0.78200
C315        C  0.10180808  0.99482100  0.79193800     0.82500
N316        N  0.14199366  0.04017124  0.79120925    -0.78200
C317        C  0.13759209  0.07975009  0.79190810     0.82600
N318        N  0.09286629  0.07362257  0.79310959    -0.79900
N319        N  0.87846291  0.60554817  0.78230502    -0.27400
N320        N  0.92280131  0.62309291  0.79067322    -0.35300
C321        C  0.92050909  0.61627904  0.81384761     0.00900
C322        C  0.87280749  0.59372225  0.82103127     0.06900
C323        C  0.84663254  0.58729831  0.80057833    -0.06200
H324        H  0.95208854  0.62970231  0.82488202     0.07600
H325        H  0.80786292  0.57126835  0.79914472     0.08800
Cu326      Cu  0.98865578  0.66679295  0.77407357     0.44200
Cu327      Cu  0.86592287  0.60978980  0.74626355     0.42000
Cu328      Cu  0.97949889  0.70745627  0.72142406     0.43900
N329        N  0.04226014  0.73482790  0.76288409    -0.34800
N330        N  0.03549762  0.75140468  0.74310722    -0.29100
C331        C  0.05951571  0.79995540  0.74373573    -0.05200
C332        C  0.08280913  0.81523146  0.76510193     0.07000
C333        C  0.07234351  0.77272187  0.77651431     0.00800
H334        H  0.05402579  0.82192626  0.73124061     0.08500
H335        H  0.07971922  0.76916144  0.79464892     0.07600
N336        N  0.92016299  0.66120796  0.70199236    -0.36300
N337        N  0.87766585  0.62587570  0.71003363    -0.28400
C338        C  0.84880151  0.60305577  0.69136036    -0.03700
C339        C  0.87519680  0.62547359  0.67103537     0.04900
C340        C  0.91998755  0.66170424  0.67857758     0.03000
H341        H  0.81259090  0.57118439  0.69243769     0.08100
H342        H  0.95103383  0.68609832  0.66775733     0.07000
N343        N  0.40906905  0.92326199  0.44751313    -0.27400
N344        N  0.39277909  0.90038570  0.46780837    -0.35300
C345        C  0.42629478  0.92593668  0.48440812     0.00900
C346        C  0.46506764  0.96667219  0.47383470     0.06900
C347        C  0.45267813  0.96369982  0.45053618    -0.06200
H348        H  0.42377397  0.91449258  0.50245781     0.07600
H349        H  0.47508334  0.98751040  0.43645957     0.08800
Cu350      Cu  0.32719851  0.83353636  0.47051750     0.44200
Cu351      Cu  0.37594974  0.89681154  0.41569630     0.42000
Cu352      Cu  0.26548434  0.78503709  0.41300809     0.43900
N353        N  0.26055118  0.76840177  0.46599282    -0.34800
N354        N  0.23870483  0.75214979  0.44550782    -0.29100
C355        C  0.19747243  0.70894195  0.44873189    -0.05200
C356        C  0.19295928  0.69699234  0.47224672     0.07000
C357        C  0.23358953  0.73544472  0.48271627     0.00800
H358        H  0.17356520  0.68684475  0.43475536     0.08500
H359        H  0.24363698  0.73851502  0.50100240     0.07600
N360        N  0.30056908  0.82455522  0.38290464    -0.36300
N361        N  0.34182147  0.86676711  0.38444284    -0.28400
C362        C  0.35511671  0.88702711  0.36309312    -0.03700
C363        C  0.32083304  0.85603560  0.34712336     0.04900
C364        C  0.28658738  0.81650599  0.36023517     0.03000
H365        H  0.38650093  0.92282156  0.35960328     0.08100
H366        H  0.25265804  0.78597012  0.35405612     0.07000
N367        N  0.79042374  0.19622841  0.55111962    -0.27400
N368        N  0.80580252  0.22102559  0.53128244    -0.35300
C369        C  0.77532994  0.19389099  0.51396997     0.00900
C370        C  0.73942273  0.15000263  0.52357676     0.06900
C371        C  0.75034640  0.15286675  0.54710037    -0.06200
H372        H  0.77733374  0.20637565  0.49614863     0.07600
H373        H  0.72867002  0.12691124  0.56067380     0.08800
Cu374      Cu  0.86544959  0.29182227  0.53016293     0.44200
Cu375      Cu  0.81990151  0.22368146  0.58338159     0.42000
Cu376      Cu  0.91952806  0.34435042  0.58838288     0.43900
N377        N  0.92869613  0.35903417  0.53533782    -0.34800
N378        N  0.94803007  0.37717394  0.55607878    -0.29100
C379        C  0.98903502  0.42059632  0.55292413    -0.05200
C380        C  0.99575916  0.43050432  0.52916310     0.07000
C381        C  0.95680741  0.39085535  0.51851386     0.00800
H382        H  0.01146071  0.44391221  0.56697282     0.08500
H383        H  0.94895051  0.38583928  0.49993931     0.07600
N384        N  0.88941413  0.29859828  0.61723517    -0.36300
N385        N  0.85319356  0.25321953  0.61474163    -0.28400
C386        C  0.84552307  0.22922992  0.63502158    -0.03700
C387        C  0.87802852  0.26108526  0.65126969     0.04900
C388        C  0.90540575  0.30499016  0.63953850     0.03000
H389        H  0.81969317  0.19072533  0.63742359     0.08100
H390        H  0.93688115  0.33767017  0.64610620     0.07000
N391        N  0.55737445  0.26572669  0.61233019    -0.27400
N392        N  0.55201216  0.30351940  0.61113953    -0.35300
C393        C  0.54265767  0.31325239  0.63270097     0.00900
C394        C  0.54266131  0.28042019  0.64831292     0.06900
C395        C  0.55203576  0.25059723  0.63481002    -0.06200
H396        H  0.53357232  0.34051855  0.63656177     0.07600
H397        H  0.55097511  0.21805834  0.64051959     0.08800
Cu398      Cu  0.55197599  0.33605127  0.57975526     0.44200
Cu399      Cu  0.56465781  0.23425959  0.58228730     0.42000
Cu400      Cu  0.56974891  0.28998320  0.52465646     0.43900
N401        N  0.55305165  0.36512922  0.54711808    -0.34800
N402        N  0.56058961  0.34993413  0.52690001    -0.29100
C403        C  0.56262716  0.37987424  0.50967749    -0.05200
C404        C  0.55559916  0.41509612  0.51963904     0.07000
C405        C  0.54967415  0.40434669  0.54333768     0.00800
H406        H  0.57043165  0.37731923  0.49145933     0.08500
H407        H  0.54572504  0.42515450  0.55710087     0.07600
N408        N  0.57443930  0.22774481  0.52948990    -0.36300
N409        N  0.57129763  0.20800427  0.55031714    -0.28400
C410        C  0.57403368  0.16818014  0.54770176    -0.03700
C411        C  0.57941050  0.16210789  0.52419597     0.04900
C412        C  0.57986951  0.20071195  0.51305774     0.03000
H413        H  0.57297376  0.14559291  0.56206957     0.08100
H414        H  0.58374440  0.20846797  0.49445822     0.07000
N415        N  0.62780571  0.90347856  0.44435281    -0.27400
N416        N  0.61920167  0.88028427  0.46467228    -0.35300
C417        C  0.61711885  0.90839389  0.48165619     0.00900
C418        C  0.62522456  0.95120737  0.47147201     0.06900
C419        C  0.63191256  0.94660745  0.44791177    -0.06200
H420        H  0.60890724  0.89787663  0.49988342     0.07600
H421        H  0.63699662  0.97187741  0.43404583     0.08800
Cu422      Cu  0.60998151  0.81091057  0.46813372     0.44200
Cu423      Cu  0.62866074  0.87603529  0.41148583     0.42000
Cu424      Cu  0.61113197  0.75994407  0.41137680     0.43900
N425        N  0.61003842  0.74612738  0.46385520    -0.34800
N426        N  0.61225733  0.72967684  0.44293416    -0.29100
C427        C  0.61376861  0.68915050  0.44533745    -0.05200
C428        C  0.61200210  0.67875155  0.46888028     0.07000
C429        C  0.60923455  0.71538545  0.48024104     0.00800
H430        H  0.61416347  0.66769006  0.43084228     0.08500
H431        H  0.60616191  0.71897653  0.49892115     0.07600
N432        N  0.61629721  0.79591117  0.38069959    -0.36300
N433        N  0.62374383  0.84017515  0.38039430    -0.28400
C434        C  0.63234822  0.85667492  0.35809984    -0.03700
C435        C  0.62971041  0.82066044  0.34378381     0.04900
C436        C  0.62008677  0.78301586  0.35881420     0.03000
H437        H  0.64416840  0.89360971  0.35301138     0.08100
H438        H  0.62032861  0.75043415  0.35443807     0.07000
O439        O  0.68271641  0.11920823  0.49220972    -0.73100
O440        O  0.54555976  0.03388798  0.47009019    -0.74100
O441        O  0.59942862  0.12638990  0.49282315    -0.62700
O442        O  0.62851549  0.02644168  0.46917006    -0.71100
O443        O  0.60623170  0.98716392  0.50323697    -0.70600
O444        O  0.57906466  0.08843020  0.52725118    -0.61900
O445        O  0.52352727  0.99578105  0.50448751    -0.74400
O446        O  0.66094612  0.07965700  0.52625250    -0.73200
Cu447      Cu  0.61482889  0.07770106  0.47985040     1.04600
Cu448      Cu  0.59177374  0.03647555  0.51651420     1.04300
C449        C  0.69267275  0.11400928  0.51325425     0.93100
C450        C  0.51333568  0.00078871  0.48346655     0.92300
C451        C  0.58587339  0.12371579  0.51413528     0.84400
C452        C  0.62042631  0.99034621  0.48198968     0.90700
N453        N  0.28326853  0.50576201  0.38542771    -0.27400
N454        N  0.32547868  0.51024410  0.38073471    -0.35300
C455        C  0.33039271  0.51004573  0.35710864     0.00900
C456        C  0.28881858  0.50486266  0.34690188     0.06900
C457        C  0.26018879  0.50237432  0.36547930    -0.06200
H458        H  0.36044109  0.51085542  0.34813805     0.07600
H459        H  0.22415547  0.49696051  0.36464462     0.08800
Cu460      Cu  0.36830594  0.51146778  0.40868842     0.44200
Cu461      Cu  0.25628024  0.50216719  0.41838969     0.42000
Cu462      Cu  0.31812588  0.51155809  0.46990262     0.43900
N463        N  0.39795664  0.50818849  0.44100257    -0.34800
N464        N  0.38088506  0.50837309  0.46224078    -0.29100
C465        C  0.41166580  0.50870536  0.47835526    -0.05200
C466        C  0.44958142  0.50840284  0.46693742     0.07000
C467        C  0.43949085  0.50808459  0.44330576     0.00800
H468        H  0.40783476  0.51110498  0.49706957     0.08500
H469        H  0.46219654  0.51029462  0.42874120     0.07600
N470        N  0.25396249  0.51445750  0.47025848    -0.36300
N471        N  0.23100255  0.50860304  0.45030311    -0.28400
C472        C  0.19271056  0.51343791  0.45375565    -0.03700
C473        C  0.19072026  0.52338883  0.47710014     0.04900
C474        C  0.23034389  0.52383183  0.48724176     0.03000
H475        H  0.16937423  0.51240366  0.43986291     0.08100
H476        H  0.24186781  0.53185477  0.50530467     0.07000
N477        N  0.94625190  0.60737780  0.54726748    -0.27400
N478        N  0.92598490  0.60089176  0.52641231    -0.35300
C479        C  0.95405979  0.59490615  0.51066360     0.00900
C480        C  0.99374672  0.59832516  0.52235113     0.06900
C481        C  0.98717663  0.60628129  0.54545995    -0.06200
H482        H  0.94557185  0.58715948  0.49226664     0.07600
H483        H  0.00927239  0.60858457  0.56022334     0.08800
Cu484      Cu  0.85911265  0.59879713  0.52238761     0.44200
Cu485      Cu  0.91532905  0.61130410  0.57817650     0.42000
Cu486      Cu  0.80701807  0.61216612  0.57905003     0.43900
N487        N  0.79336285  0.59927763  0.52586150    -0.34800
N488        N  0.77704777  0.60585838  0.54606510    -0.29100
C489        C  0.73409823  0.60223136  0.54265062    -0.05200
C490        C  0.72163515  0.59240836  0.51931768     0.07000
C491        C  0.76013295  0.59083003  0.50910916     0.00800
H492        H  0.71202069  0.60378510  0.55656684     0.08500
H493        H  0.76273071  0.58213144  0.49106890     0.07600
N494        N  0.83994063  0.60961513  0.60980197    -0.36300
N495        N  0.88053928  0.60917442  0.60890213    -0.28400
C496        C  0.89627242  0.61042995  0.63072139    -0.03700
C497        C  0.86392427  0.61119036  0.64635431     0.04900
C498        C  0.82856783  0.61097732  0.63250772     0.03000
H499        H  0.93057577  0.61360186  0.63489371     0.08100
H500        H  0.79905098  0.61517264  0.63837704     0.07000
O501        O  0.06731189  0.50860022  0.53081391    -0.73100
O502        O  0.15982653  0.64137151  0.50433977    -0.74100
O503        O  0.06569198  0.59495740  0.52726082    -0.62700
O504        O  0.16047752  0.55344948  0.50742876    -0.71100
O505        O  0.12158354  0.53054300  0.47350528    -0.70600
O506        O  0.02836805  0.57207945  0.49294003    -0.61900
O507        O  0.12198448  0.61800186  0.47011878    -0.74400
O508        O  0.02903454  0.48494466  0.49668920    -0.73200
Cu509      Cu  0.11466228  0.57549208  0.51867401     1.04600
Cu510      Cu  0.07408738  0.55063683  0.48213271     1.04300
C511        C  0.03280073  0.47649018  0.51823594     0.93100
C512        C  0.15624393  0.65020034  0.48284468     0.92300
C513        C  0.03135016  0.58863037  0.51360243     0.84400
C514        C  0.15590722  0.53597700  0.48679236     0.90700
O515        O  0.64207331  0.57997985  0.52238884    -0.73100
O516        O  0.50567417  0.53006558  0.49868911    -0.74100
O517        O  0.55532127  0.48833710  0.52197527    -0.62700
O518        O  0.59227902  0.62164652  0.49983612    -0.71100
O519        O  0.61288303  0.60579208  0.46530079    -0.70600
O520        O  0.57611234  0.47158987  0.48774872    -0.61900
O521        O  0.52669289  0.51449033  0.46423880    -0.74400
O522        O  0.66332601  0.56426670  0.48804640    -0.73200
Cu523      Cu  0.57310442  0.55537245  0.51190260     1.04600
Cu524      Cu  0.59544429  0.53840085  0.47512281     1.04300
C525        C  0.67375972  0.57885064  0.50925620     0.93100
C526        C  0.49567728  0.51704396  0.47724091     0.92300
C527        C  0.56180378  0.45989216  0.50901580     0.84400
C528        C  0.60637654  0.63380600  0.47865711     0.90700
C529        C  0.12600102  0.90525531  0.76161074    -0.02000
C530        C  0.09734206  0.86314649  0.77539626     0.07700
C531        C  0.07528808  0.86663475  0.79629680    -0.02100
C532        C  0.08076482  0.91132704  0.80263112    -0.02100
C533        C  0.10529410  0.95178183  0.78757187     0.07800
C534        C  0.12810989  0.94877612  0.76704955    -0.02300
Br535      Br  0.15626484  0.00144557  0.74448776    -0.00800
Br536      Br  0.16090780  0.90292420  0.73448872    -0.00900
Br537      Br  0.05245992  0.91670774  0.83159877    -0.00900
Br538      Br  0.03224024  0.81043225  0.81527261    -0.00900
C539        C  0.99459022  0.05558914  0.80179970    -0.02000
C540        C  0.00470905  0.02344410  0.78998891     0.07700
C541        C  0.97283445  0.99271048  0.77224820    -0.02100
C542        C  0.93403035  0.99770022  0.76504741    -0.02100
C543        C  0.92694243  0.03316372  0.77535068     0.07800
C544        C  0.95679039  0.06154735  0.79409457    -0.02300
Br545      Br  0.95077094  0.11315054  0.80754835    -0.00800
Br546      Br  0.03314533  0.09235742  0.82849862    -0.00900
Br547      Br  0.89182783  0.95767524  0.74005405    -0.00900
Br548      Br  0.98342151  0.94632983  0.75606800    -0.00900
C549        C  0.18186022  0.15791112  0.76933103    -0.02000
C550        C  0.18065058  0.12855494  0.78803288     0.07700
C551        C  0.22205361  0.14440571  0.80201766    -0.02100
C552        C  0.26615565  0.18673161  0.79588651    -0.02100
C553        C  0.26818985  0.21489492  0.77629859     0.07800
C554        C  0.22530987  0.20143201  0.76383560    -0.02300
Br555      Br  0.22646564  0.24200060  0.73854311    -0.00800
Br556      Br  0.12571631  0.13700795  0.74963572    -0.00900
Br557      Br  0.32365894  0.20154909  0.81318117    -0.00900
Br558      Br  0.21816951  0.10772961  0.82967880    -0.00900
C559        C  0.23035187  0.08216943  0.26857468    -0.02000
C560        C  0.26533878  0.09414226  0.25061142     0.07700
C561        C  0.26776288  0.12355201  0.23167985    -0.02100
C562        C  0.22961244  0.13167308  0.22801277    -0.02100
C563        C  0.19227112  0.11548552  0.24479627     0.07800
C564        C  0.19591127  0.09598332  0.26616340    -0.02300
Br565      Br  0.15120772  0.08548833  0.29132794    -0.00800
Br566      Br  0.22287493  0.04026757  0.29449725    -0.00900
Br567      Br  0.22569887  0.15929658  0.19880712    -0.00900
Br568      Br  0.32164727  0.14968454  0.20988442    -0.00900
C569        C  0.10766199  0.25780959  0.22168256    -0.02000
C570        C  0.06917337  0.25566246  0.23473788     0.07700
C571        C  0.03577555  0.21229006  0.24654161    -0.02100
C572        C  0.04206297  0.17222046  0.24636430    -0.02100
C573        C  0.08061891  0.17453208  0.23337510     0.07800
C574        C  0.11173066  0.21665688  0.22014627    -0.02300
Br575      Br  0.15935794  0.21811739  0.19905397    -0.00800
Br576      Br  0.15904336  0.31801216  0.20797932    -0.00900
Br577      Br  0.99997156  0.11609074  0.26553136    -0.00900
Br578      Br  0.98221160  0.20854614  0.26368445    -0.00900
C579        C  0.93663440  0.94582493  0.21596838    -0.02000
C580        C  0.93227869  0.90960596  0.23148199     0.07700
C581        C  0.97360387  0.91634173  0.24318183    -0.02100
C582        C  0.01797991  0.96121650  0.24157262    -0.02100
C583        C  0.02102008  0.99957477  0.22788100     0.07800
C584        C  0.98141675  0.98970338  0.21345752    -0.02300
Br585      Br  0.98870088  0.03540035  0.18939082    -0.00800
Br586      Br  0.88061570  0.93858684  0.19992291    -0.00900
Br587      Br  0.07260483  0.96879171  0.25908966    -0.00900
Br588      Br  0.96838686  0.86405970  0.26211995    -0.00900
loop_ 
_geom_bond_atom_site_label_1 
_geom_bond_atom_site_label_2 
_geom_bond_distance 
_geom_bond_site_symmetry_2 
_ccdc_geom_bond_type 
N1            N2   1.324       .  A
N1            C5   1.351       .  A
N1           Cu9   2.098       .  S
N2            C3   1.339       .  A
N2           Cu8   2.058       .  S
C3            C4   1.375       .  A
C3            H6   1.082       .  S
C4            C5   1.387       .  A
C4          C435   1.465       .  S
C5            H7   1.082       .  S
Cu8          N11   2.056       .  S
Cu9          N19   2.097       .  S
Cu10         N12   2.058       .  S
Cu10         N18   2.059       .  S
N11          N12   1.318       .  A
N11          C15   1.341       .  A
N12          C13   1.345       .  A
C13          C14   1.385       .  A
C13          H16   1.082       .  S
C14          C15   1.382       .  A
C14         C580   1.477       .  S
C15          H17   1.083       .  S
N18          N19   1.324       .  A
N18          C22   1.337       .  A
N19          C20   1.353       .  A
C20          C21   1.388       .  A
C20          H23   1.081       .  S
C21          C22   1.377       .  A
C21         C247   1.471       .  S
C22          H24   1.080       .  S
N25          N26   1.324       .  A
N25          C29   1.356       .  A
N25         Cu33   2.110       .  S
N26          C27   1.335       .  A
N26         Cu32   2.050       .  S
C27          C28   1.375       .  A
C27          H30   1.083       .  S
C28          C29   1.392       .  A
C28         C456   1.475       .  S
C29          H31   1.081       .  S
Cu32         N35   2.046       .  S
Cu33         N43   2.110       .  S
Cu34         N36   2.058       .  S
Cu34         N42   2.060       .  S
N35          N36   1.315       .  A
N35          C39   1.340       .  A
N36          C37   1.345       .  A
C37          C38   1.388       .  A
C37          H40   1.082       .  S
C38          C39   1.382       .  A
C38         C570   1.482       .  S
C39          H41   1.083       .  S
N42          N43   1.325       .  A
N42          C46   1.333       .  A
N43          C44   1.358       .  A
C44          C45   1.393       .  A
C44          H47   1.081       .  S
C45          C46   1.376       .  A
C45         C106   1.478       .  S
C46          H48   1.082       .  S
N49          N50   1.323       .  A
N49          C53   1.355       .  A
N49         Cu57   2.107       .  S
N50          C51   1.336       .  A
N50         Cu56   2.047       .  S
C51          C52   1.373       .  A
C51          H54   1.084       .  S
C52          C53   1.391       .  A
C52         C199   1.469       .  S
C53          H55   1.081       .  S
Cu56         N59   2.046   1_565  S
Cu57         N67   2.108       .  S
Cu58         N60   2.057   1_565  S
Cu58         N66   2.059       .  S
N59          N60   1.316       .  A
N59          C63   1.338       .  A
N60          C61   1.346       .  A
C61          C62   1.387       .  A
C61          H64   1.083       .  S
C62          C63   1.384       .  A
C62         C560   1.479       .  S
C63          H65   1.081       .  S
N66          N67   1.325       .  A
N66          C70   1.338       .  A
N67          C68   1.354       .  A
C68          C69   1.389       .  A
C68          H71   1.082       .  S
C69          C70   1.375       .  A
C69         C363   1.471       .  S
C70          H72   1.082       .  S
C73          N74   1.356       .  A
C73          N78   1.357       .  A
C73         C563   1.467       .  S
N74          C75   1.360       .  A
C75          N76   1.358       .  A
C75         C573   1.482       .  S
N76          C77   1.360       .  A
C77          N78   1.353       .  A
C77         C583   1.490   1_545  S
N79          N80   1.320       .  A
N79          C83   1.340       .  A
N79         Cu87   2.048       .  S
N80          C81   1.352       .  A
N80         Cu86   2.102       .  S
C81          C82   1.393       .  A
C81          H84   1.082   1_556  S
C82          C83   1.378       .  A
C82         C264   1.474       .  S
C83          H85   1.081       .  S
Cu86         N89   2.105       .  S
Cu87         N97   2.048       .  S
Cu88         N90   2.071       .  S
Cu88         N96   2.069       .  S
N89          N90   1.327       .  A
N89          C93   1.349       .  A
N90          C91   1.343       .  A
C91          C92   1.378       .  A
C91          H94   1.082       .  S
C92          C93   1.387       .  A
C92         C162   1.470   1_655  S
C93          H95   1.082       .  S
N96          N97   1.319       .  A
N96         C100   1.350       .  A
N97          C98   1.335       .  A
C98          C99   1.378       .  A
C98         H101   1.084       .  S
C99         C100   1.387       .  A
C99         C309   1.466       .  S
C100        H102   1.081       .  S
N103        N104   1.318       .  A
N103        C107   1.333       .  A
N103       Cu111   2.039       .  S
N104        C105   1.357       .  A
N104       Cu110   2.098       .  S
C105        C106   1.395       .  A
C105        H108   1.081       .  S
C106        C107   1.378       .  A
C107        H109   1.081       .  S
Cu110       N113   2.103       .  S
Cu111       N121   2.038       .  S
Cu112       N114   2.127       .  S
Cu112       N120   2.122       .  S
N113        N114   1.330       .  A
N113        C117   1.348       .  A
N114        C115   1.352       .  A
C115        C116   1.389       .  A
C115        H118   1.081   1_554  S
C116        C117   1.383       .  A
C116        C176   1.484       .  S
C117        H119   1.083       .  S
N120        N121   1.319       .  A
N120        C124   1.357       .  A
N121        C122   1.339       .  A
C122        C123   1.376       .  A
C122        H125   1.084       .  S
C123        C124   1.399       .  A
C123        C163   1.481       .  S
C124        H126   1.080   1_554  S
N127        N128   1.320       .  A
N127        C131   1.340       .  A
N127       Cu135   2.052       .  S
N128        C129   1.355       .  A
N128       Cu134   2.111       .  S
C129        C130   1.395       .  A
C129        H132   1.081   1_556  S
C130        C131   1.379       .  A
C130        C164   1.479   1_655  S
C131        H133   1.084       .  S
Cu134       N137   2.114       .  S
Cu135       N145   2.053       .  S
Cu136       N138   2.094       .  S
Cu136       N144   2.091       .  S
N137        N138   1.328       .  A
N137        C141   1.352       .  A
N138        C139   1.346       .  A
C139        C140   1.382       .  A
C139        H142   1.083       .  S
C140        C141   1.388       .  A
C140        C175   1.481       .  S
C141        H143   1.081       .  S
N144        N145   1.319       .  A
N144        C148   1.356       .  A
N145        C146   1.336       .  A
C146        C147   1.381       .  A
C146        H149   1.080       .  S
C147        C148   1.393       .  A
C147        C322   1.478       .  S
C148        H150   1.080       .  S
O151       Cu159   1.996       .  S
O151        C161   1.276       .  A
O152       Cu159   2.005       .  S
O152        C162   1.276   1_554  A
O153       Cu159   2.024       .  S
O153        C163   1.282       .  A
O154       Cu159   2.033   1_655  S
O154        C164   1.279   1_654  A
O155       Cu160   2.012       .  S
O155        C164   1.279       .  A
O156       Cu160   2.025       .  S
O156        C163   1.277   1_556  A
O157       Cu160   2.016       .  S
O157        C162   1.280       .  A
O158       Cu160   2.015       .  S
O158        C161   1.279   1_556  A
Cu159      Cu160   2.374   1_554  S
C161        C192   1.466       .  S
O165       Cu173   2.031       .  S
O165        C175   1.279   1_554  A
O166       Cu173   2.030       .  S
O166        C176   1.281       .  A
O167       Cu173   2.029       .  S
O167        C177   1.278   1_554  A
O168       Cu173   2.015       .  S
O168        C178   1.280       .  A
O169       Cu174   2.023       .  S
O169        C178   1.277   1_556  A
O170       Cu174   2.017       .  S
O170        C177   1.280       .  A
O171       Cu174   2.025       .  S
O171        C176   1.279   1_556  A
O172       Cu174   2.020       .  S
O172        C175   1.279       .  A
Cu173      Cu174   2.371   1_554  S
C177        C216   1.480       .  S
C178        C240   1.478       .  S
N179        N180   1.320       .  A
N179        C183   1.341       .  A
N179       Cu187   2.061       .  S
N180        C181   1.349       .  A
N180       Cu186   2.075       .  S
C181        C182   1.387       .  A
C181        H184   1.082   1_554  S
C182        C183   1.381       .  A
C182        C263   1.469       .  S
C183        H185   1.082       .  S
Cu186       N189   2.077       .  S
Cu187       N197   2.062       .  S
Cu188       N190   2.083       .  S
Cu188       N196   2.080       .  S
N189        N190   1.326       .  A
N189        C193   1.346       .  A
N190        C191   1.343       .  A
C191        C192   1.382       .  A
C191        H194   1.082       .  S
C192        C193   1.381       .  A
C193        H195   1.082   1_554  S
N196        N197   1.320       .  A
N196        C200   1.351       .  A
N197        C198   1.339       .  A
C198        C199   1.381       .  A
C198        H201   1.081       .  S
C199        C200   1.388       .  A
C200        H202   1.083       .  S
N203        N204   1.329       .  A
N203        C207   1.346       .  A
N203       Cu211   2.097       .  S
N204        C205   1.353       .  A
N204       Cu210   2.120       .  S
C205        C206   1.389       .  A
C205        H208   1.081   1_556  S
C206        C207   1.382       .  A
C206        C262   1.482       .  S
C207        H209   1.083       .  S
Cu210       N213   2.117       .  S
Cu211       N221   2.093       .  S
Cu212       N214   2.045       .  S
Cu212       N220   2.044       .  S
N213        N214   1.320       .  A
N213        C217   1.356       .  A
N214        C215   1.339       .  A
C215        C216   1.378       .  A
C215        H218   1.083       .  S
C216        C217   1.397       .  A
C217        H219   1.081   1_556  S
N220        N221   1.318       .  A
N220        C224   1.334       .  A
N221        C222   1.356       .  A
C222        C223   1.394       .  A
C222        H225   1.081       .  S
C223        C224   1.378       .  A
C223        C268   1.475       .  S
C224        H226   1.083       .  S
N227        N228   1.327       .  A
N227        C231   1.345       .  A
N227       Cu235   2.086       .  S
N228        C229   1.353       .  A
N228       Cu234   2.120       .  S
C229        C230   1.391       .  A
C229        H232   1.081   1_554  S
C230        C231   1.381       .  A
C230        C261   1.481       .  S
C231        H233   1.084       .  S
Cu234       N237   2.116       .  S
Cu235       N245   2.083       .  S
Cu236       N238   2.049       .  S
Cu236       N244   2.050       .  S
N237        N238   1.321       .  A
N237        C241   1.355       .  A
N238        C239   1.340       .  A
C239        C240   1.378       .  A
C239        H242   1.083       .  S
C240        C241   1.395       .  A
C241        H243   1.081   1_554  S
N244        N245   1.319       .  A
N244        C248   1.338       .  A
N245        C246   1.353       .  A
C246        C247   1.390       .  A
C246        H249   1.079       .  S
C247        C248   1.379       .  A
C248        H250   1.080       .  S
O251       Cu259   2.031   1_565  S
O251        C261   1.281       .  A
O252       Cu259   2.034       .  S
O252        C262   1.280   1_554  A
O253       Cu259   1.999       .  S
O253        C263   1.277   1_545  A
O254       Cu259   2.017       .  S
O254        C264   1.277   1_554  A
O255       Cu260   2.013       .  S
O255        C264   1.280       .  A
O256       Cu260   2.019   1_565  S
O256        C263   1.278   1_556  A
O257       Cu260   2.018       .  S
O257        C262   1.279       .  A
O258       Cu260   2.022   1_565  S
O258        C261   1.278   1_556  A
Cu259      Cu260   2.373   1_554  S
N265        N266   1.325       .  A
N265        C269   1.356       .  A
N265       Cu273   2.104       .  S
N266        C267   1.335       .  A
N266       Cu272   2.060       .  S
C267        C268   1.376       .  A
C267        H270   1.084       .  S
C268        C269   1.391       .  A
C269        H271   1.081       .  S
Cu272       N275   2.057       .  S
Cu273       N283   2.104       .  S
Cu274       N276   2.043       .  S
Cu274       N282   2.045       .  S
N275        N276   1.316       .  A
N275        C279   1.345       .  A
N276        C277   1.338       .  A
C277        C278   1.383       .  A
C277        H280   1.083       .  S
C278        C279   1.387       .  A
C278        C553   1.480       .  S
C279        H281   1.082       .  S
N282        N283   1.323       .  A
N282        C286   1.336       .  A
N283        C284   1.353       .  A
C284        C285   1.390       .  A
C284        H287   1.082       .  S
C285        C286   1.373       .  A
C285        C394   1.468       .  S
C286        H288   1.084       .  S
N289        N290   1.323       .  A
N289        C293   1.349       .  A
N289       Cu297   2.084       .  S
N290        C291   1.339       .  A
N290       Cu296   2.061       .  S
C291        C292   1.377       .  A
C291        H294   1.082       .  S
C292        C293   1.384       .  A
C292        C387   1.464       .  S
C293        H295   1.082       .  S
Cu296       N299   2.058       .  S
Cu297       N307   2.084       .  S
Cu298       N300   2.054       .  S
Cu298       N306   2.056       .  S
N299        N300   1.318       .  A
N299        C303   1.341       .  A
N300        C301   1.344       .  A
C301        C302   1.384       .  A
C301        H304   1.082       .  S
C302        C303   1.383       .  A
C302        C543   1.475       .  S
C303        H305   1.082       .  S
N306        N307   1.323       .  A
N306        C310   1.336       .  A
N307        C308   1.351       .  A
C308        C309   1.386       .  A
C308        H311   1.081       .  S
C309        C310   1.376       .  A
C310        H312   1.079       .  S
C313        N314   1.354   1_545  A
C313        N318   1.356       .  A
C313        C540   1.478       .  S
N314        C315   1.357       .  A
C315        N316   1.357   1_565  A
C315        C533   1.472       .  S
N316        C317   1.357       .  A
C317        N318   1.353       .  A
C317        C550   1.473       .  S
N319        N320   1.325       .  A
N319        C323   1.358       .  A
N319       Cu327   2.114       .  S
N320        C321   1.334       .  A
N320       Cu326   2.062       .  S
C321        C322   1.375       .  A
C321        H324   1.080       .  S
C322        C323   1.394       .  A
C323        H325   1.079       .  S
Cu326       N329   2.058   1_655  S
Cu327       N337   2.113       .  S
Cu328       N330   2.037   1_655  S
Cu328       N336   2.038       .  S
N329        N330   1.314       .  A
N329        C333   1.345       .  A
N330        C331   1.337       .  A
C331        C332   1.383       .  A
C331        H334   1.083       .  S
C332        C333   1.389       .  A
C332        C530   1.483       .  S
C333        H335   1.081       .  S
N336        N337   1.323       .  A
N336        C340   1.335       .  A
N337        C338   1.355       .  A
C338        C339   1.392       .  A
C338        H341   1.082       .  S
C339        C340   1.372       .  A
C339        C497   1.468       .  S
C340        H342   1.083       .  S
N343        N344   1.322       .  A
N343        C347   1.340       .  A
N343       Cu351   2.056       .  S
N344        C345   1.350       .  A
N344       Cu350   2.093       .  S
C345        C346   1.389       .  A
C345        H348   1.081       .  S
C346        C347   1.378       .  A
C346        C450   1.468   1_565  S
C347        H349   1.082       .  S
Cu350       N353   2.095       .  S
Cu351       N361   2.057       .  S
Cu352       N354   2.081       .  S
Cu352       N360   2.079       .  S
N353        N354   1.326       .  A
N353        C357   1.349       .  A
N354        C355   1.344       .  A
C355        C356   1.380       .  A
C355        H358   1.082       .  S
C356        C357   1.386       .  A
C356        C512   1.473       .  S
C357        H359   1.082       .  S
N360        N361   1.319       .  A
N360        C364   1.351       .  A
N361        C362   1.339       .  A
C362        C363   1.381       .  A
C362        H365   1.084       .  S
C363        C364   1.387       .  A
C364        H366   1.082       .  S
N367        N368   1.320       .  A
N367        C371   1.339       .  A
N367       Cu375   2.052       .  S
N368        C369   1.348       .  A
N368       Cu374   2.081       .  S
C369        C370   1.388       .  A
C369        H372   1.082       .  S
C370        C371   1.379       .  A
C370        C449   1.466       .  S
C371        H373   1.082       .  S
Cu374       N377   2.082       .  S
Cu375       N385   2.051       .  S
Cu376       N378   2.079       .  S
Cu376       N384   2.076       .  S
N377        N378   1.325       .  A
N377        C381   1.347       .  A
N378        C379   1.344       .  A
C379        C380   1.381       .  A
C379        H382   1.081   1_655  S
C380        C381   1.383       .  A
C380        C511   1.468   1_655  S
C381        H383   1.082       .  S
N384        N385   1.320       .  A
N384        C388   1.349       .  A
N385        C386   1.339       .  A
C386        C387   1.378       .  A
C386        H389   1.083       .  S
C387        C388   1.385       .  A
C388        H390   1.081       .  S
N391        N392   1.320       .  A
N391        C395   1.349       .  A
N391       Cu399   2.066       .  S
N392        C393   1.341       .  A
N392       Cu398   2.074       .  S
C393        C394   1.383       .  A
C393        H396   1.085       .  S
C394        C395   1.384       .  A
C395        H397   1.082       .  S
Cu398       N401   2.075       .  S
Cu399       N409   2.068       .  S
Cu400       N402   2.108       .  S
Cu400       N408   2.109       .  S
N401        N402   1.324       .  A
N401        C405   1.343       .  A
N402        C403   1.354       .  A
C403        C404   1.391       .  A
C403        H406   1.081       .  S
C404        C405   1.382       .  A
C404        C527   1.480       .  S
C405        H407   1.083       .  S
N408        N409   1.325       .  A
N408        C412   1.353       .  A
N409        C410   1.342       .  A
C410        C411   1.378       .  A
C410        H413   1.084       .  S
C411        C412   1.391       .  A
C411        C451   1.476       .  S
C412        H414   1.081       .  S
N415        N416   1.326       .  A
N415        C419   1.343       .  A
N415       Cu423   2.080       .  S
N416        C417   1.353       .  A
N416       Cu422   2.107       .  S
C417        C418   1.390       .  A
C417        H420   1.081       .  S
C418        C419   1.380       .  A
C418        C452   1.478       .  S
C419        H421   1.084       .  S
Cu422       N425   2.106       .  S
Cu423       N433   2.079       .  S
Cu424       N426   2.056       .  S
Cu424       N432   2.055       .  S
N425        N426   1.323       .  A
N425        C429   1.352       .  A
N426        C427   1.341       .  A
C427        C428   1.377       .  A
C427        H430   1.083       .  S
C428        C429   1.392       .  A
C428        C528   1.473       .  S
C429        H431   1.081       .  S
N432        N433   1.319       .  A
N432        C436   1.341       .  A
N433        C434   1.348       .  A
C434        C435   1.387       .  A
C434        H437   1.083       .  S
C435        C436   1.381       .  A
C436        H438   1.085       .  S
O439       Cu447   2.010       .  S
O439        C449   1.277       .  A
O440       Cu447   2.004       .  S
O440        C450   1.278       .  A
O441       Cu447   2.020       .  S
O441        C451   1.277       .  A
O442       Cu447   2.016       .  S
O442        C452   1.279   1_545  A
O443       Cu448   2.025   1_565  S
O443        C452   1.278       .  A
O444       Cu448   2.018       .  S
O444        C451   1.280       .  A
O445       Cu448   2.010   1_565  S
O445        C450   1.276   1_565  A
O446       Cu448   1.999       .  S
O446        C449   1.277       .  A
Cu447      Cu448   2.374       .  S
N453        N454   1.319       .  A
N453        C457   1.335       .  A
N453       Cu461   2.046       .  S
N454        C455   1.356       .  A
N454       Cu460   2.101       .  S
C455        C456   1.393       .  A
C455        H458   1.083       .  S
C456        C457   1.377       .  A
C457        H459   1.084       .  S
Cu460       N463   2.107       .  S
Cu461       N471   2.046       .  S
Cu462       N464   2.126       .  S
Cu462       N470   2.122       .  S
N463        N464   1.330       .  A
N463        C467   1.350       .  A
N464        C465   1.352       .  A
C465        C466   1.389       .  A
C465        H468   1.081       .  S
C466        C467   1.386       .  A
C466        C526   1.487       .  S
C467        H469   1.083       .  S
N470        N471   1.319       .  A
N470        C474   1.359       .  A
N471        C472   1.339       .  A
C472        C473   1.379       .  A
C472        H475   1.084       .  S
C473        C474   1.399       .  A
C473        C514   1.486       .  S
C474        H476   1.081       .  S
N477        N478   1.323       .  A
N477        C481   1.344       .  A
N477       Cu485   2.058       .  S
N478        C479   1.357       .  A
N478       Cu484   2.138       .  S
C479        C480   1.399       .  A
C479        H482   1.081       .  S
C480        C481   1.379       .  A
C480        C513   1.488   1_655  S
C481        H483   1.083   1_655  S
Cu484       N487   2.140       .  S
Cu485       N495   2.059       .  S
Cu486       N488   2.079       .  S
Cu486       N494   2.078       .  S
N487        N488   1.327       .  A
N487        C491   1.357       .  A
N488        C489   1.344       .  A
C489        C490   1.380       .  A
C489        H492   1.083       .  S
C490        C491   1.395       .  A
C490        C525   1.487       .  S
C491        H493   1.081       .  S
N494        N495   1.319       .  A
N494        C498   1.351       .  A
N495        C496   1.338       .  A
C496        C497   1.380       .  A
C496        H499   1.085       .  S
C497        C498   1.388       .  A
C498        H500   1.082       .  S
O501       Cu509   2.003       .  S
O501        C511   1.277       .  A
O502       Cu509   2.014       .  S
O502        C512   1.277       .  A
O503       Cu509   2.041       .  S
O503        C513   1.284       .  A
O504       Cu509   2.049       .  S
O504        C514   1.280       .  A
O505       Cu510   2.012       .  S
O505        C514   1.279       .  A
O506       Cu510   2.025       .  S
O506        C513   1.277       .  A
O507       Cu510   2.014       .  S
O507        C512   1.279       .  A
O508       Cu510   2.015       .  S
O508        C511   1.278       .  A
Cu509      Cu510   2.372       .  S
O515       Cu523   2.027       .  S
O515        C525   1.281       .  A
O516       Cu523   2.032       .  S
O516        C526   1.280       .  A
O517       Cu523   2.008       .  S
O517        C527   1.278       .  A
O518       Cu523   2.009       .  S
O518        C528   1.275       .  A
O519       Cu524   2.018       .  S
O519        C528   1.281       .  A
O520       Cu524   2.035       .  S
O520        C527   1.280       .  A
O521       Cu524   2.032       .  S
O521        C526   1.280       .  A
O522       Cu524   2.036       .  S
O522        C525   1.279       .  A
Cu523      Cu524   2.371       .  S
C529        C530   1.413       .  A
C529        C534   1.405       .  A
C529       Br536   1.934       .  S
C530        C531   1.420       .  A
C531        C532   1.406       .  A
C531       Br538   1.933       .  S
C532        C533   1.407       .  A
C532       Br537   1.936       .  S
C533        C534   1.410       .  A
C534       Br535   1.934   1_565  S
C539        C540   1.411   1_655  A
C539        C544   1.403       .  A
C539       Br546   1.936   1_655  S
C540        C541   1.417   1_445  A
C541        C542   1.407       .  A
C541       Br548   1.935       .  S
C542        C543   1.407   1_565  A
C542       Br547   1.932       .  S
C543        C544   1.413       .  A
C544       Br545   1.933       .  S
C549        C550   1.412       .  A
C549        C554   1.405       .  A
C549       Br556   1.934       .  S
C550        C551   1.407       .  A
C551        C552   1.406       .  A
C551       Br558   1.934       .  S
C552        C553   1.418       .  A
C552       Br557   1.933       .  S
C553        C554   1.411       .  A
C554       Br555   1.933       .  S
C559        C560   1.417       .  A
C559        C564   1.405       .  A
C559       Br566   1.929       .  S
C560        C561   1.411       .  A
C561        C562   1.403       .  A
C561       Br568   1.931       .  S
C562        C563   1.405       .  A
C562       Br567   1.923       .  S
C563        C564   1.404       .  A
C564       Br565   1.931       .  S
C569        C570   1.416       .  A
C569        C574   1.404       .  A
C569       Br576   1.937       .  S
C570        C571   1.410       .  A
C571        C572   1.410       .  A
C571       Br578   1.931   1_455  S
C572        C573   1.414       .  A
C572       Br577   1.931   1_455  S
C573        C574   1.410       .  A
C574       Br575   1.929       .  S
C579        C580   1.412       .  A
C579        C584   1.404       .  A
C579       Br586   1.933       .  S
C580        C581   1.406       .  A
C581        C582   1.410   1_655  A
C581       Br588   1.933       .  S
C582        C583   1.422       .  A
C582       Br587   1.932       .  S
C583        C584   1.413   1_455  A
C584       Br585   1.934   1_565  S
