geometry optimzed in LAMMPS
_audit_creation_date              2020-12-01 
_audit_creation_method            'lammps2cif' 
_symmetry_space_group_name_H-M    'P1' 
_symmetry_Int_Tables_number       1 
_symmetry_cell_setting            triclinic 
loop_ 
_symmetry_equiv_pos_as_xyz 
  x,y,z 
_cell_length_a                    43.84866462 
_cell_length_b                    43.73592203136009 
_cell_length_c                    47.132389730502545 
_cell_angle_alpha                 89.98714086016251 
_cell_angle_beta                  89.97809192392349 
_cell_angle_gamma                 130.12258392091678 
loop_ 
_atom_site_label 
_atom_site_type_symbol 
_atom_site_fract_x 
_atom_site_fract_y 
_atom_site_fract_z 
_atom_site_charge 
C1          C  0.81300495  0.37994741  0.02538230     0.81700
N2          N  0.84992700  0.39109471  0.02547827    -0.76600
C3          C  0.86851396  0.39646916  0.50057025     0.84200
N4          N  0.84987502  0.39057807  0.47558573    -0.76500
C5          C  0.81294721  0.37943241  0.47554118     0.84200
N6          N  0.79455967  0.37408501  0.00042846    -0.78300
C7          C  0.40989989  0.98335647  0.02490676     0.81700
N8          N  0.41567415  0.00166165  0.49986085    -0.76600
C9          C  0.40987799  0.98286913  0.47506915     0.84200
N10         N  0.39842444  0.94570898  0.47529566    -0.76500
C11         C  0.39263603  0.92721734  0.50036854     0.84200
N12         N  0.39844561  0.94619703  0.02518411    -0.78300
C13         C  0.42895071  0.37690809  0.47592031     0.81700
N14         N  0.43762812  0.36874229  0.50093354    -0.76600
C15         C  0.42889207  0.37721667  0.02577271     0.84200
N16         N  0.41138771  0.39388295  0.02562356    -0.76500
C17         C  0.40260364  0.40213451  0.50059196     0.84200
N18         N  0.41144795  0.39357946  0.47572970    -0.78300
Fe19       Fe  0.56691607  0.22937369  0.25009635     1.65800
Fe20       Fe  0.48441346  0.22262149  0.25031624     1.73200
Fe21       Fe  0.57845543  0.31484817  0.25077568     1.54400
O22         O  0.61495192  0.32109645  0.28224096    -0.80200
O23         O  0.48555958  0.25650216  0.21912482    -0.78500
O24         O  0.60732667  0.26550615  0.28168275    -0.82700
O25         O  0.60754501  0.26626492  0.21879206    -0.77500
O26         O  0.54623692  0.31545973  0.28239951    -0.79300
O27         O  0.47595344  0.18533673  0.21845657    -0.82100
C28         C  0.62313530  0.30069250  0.20941054     0.98700
C29         C  0.62282421  0.29967832  0.29153877     1.06100
O30         O  0.54325333  0.25562300  0.25039773    -1.11100
O31         O  0.47564369  0.18446718  0.28156537    -0.73500
O32         O  0.52938464  0.18911516  0.28137615    -0.77000
O33         O  0.61520986  0.32188517  0.21914503    -0.77700
C34         C  0.49555678  0.17490117  0.29098273     0.97600
O35         O  0.52958529  0.18980468  0.21846734    -0.75600
O36         O  0.48522980  0.25564291  0.28209926    -0.80800
C37         C  0.51136503  0.29179246  0.20977905     1.00200
C38         C  0.51095299  0.29068074  0.29186512     1.06100
O39         O  0.54655429  0.31632507  0.21940863    -0.76500
C40         C  0.49588305  0.17589969  0.20881213     1.04400
C41         C  0.96394523  0.42530219  0.02573047     0.81700
N42         N  0.92703529  0.41418956  0.02566019    -0.76600
C43         C  0.90846902  0.40841840  0.00066625     0.84200
N44         N  0.92714266  0.41394523  0.47576821    -0.76500
C45         C  0.96405551  0.42506287  0.47588949     0.84200
N46         N  0.98241854  0.43078941  0.00085667    -0.78300
C47         C  0.36333880  0.83148299  0.02600486     0.81700
N48         N  0.35793194  0.81282691  0.00123018    -0.76600
C49         C  0.36380154  0.83113717  0.47616544     0.84200
N50         N  0.37501375  0.86819991  0.47585205    -0.76500
C51         C  0.38046921  0.88705748  0.00065611     0.84200
N52         N  0.37455504  0.86853974  0.02574224    -0.78300
C53         C  0.35706739  0.44519917  0.02506728     0.81700
N54         N  0.34818562  0.45315670  0.00005046    -0.76600
C55         C  0.35691037  0.44465413  0.47521561     0.84200
N56         N  0.37456201  0.42814011  0.47537816    -0.76500
C57         C  0.38354317  0.42009711  0.00040947     0.84200
N58         N  0.37472363  0.42868462  0.02526447    -0.78300
Fe59       Fe  0.21047367  0.58396299  0.25125070     1.65800
Fe60       Fe  0.20289423  0.50076913  0.25030716     1.73200
Fe61       Fe  0.29528405  0.59472602  0.25059300     1.54400
O62         O  0.30221289  0.63206803  0.21943701    -0.80200
O63         O  0.23608108  0.50099868  0.28149245    -0.78500
O64         O  0.24703167  0.62491167  0.21997824    -0.82700
O65         O  0.24715622  0.62406569  0.28286658    -0.77500
O66         O  0.29590407  0.56273834  0.21869988    -0.79300
O67         O  0.16546105  0.49201139  0.28208533    -0.82100
C68         C  0.28134174  0.63931029  0.29233870     0.98700
C69         C  0.28116879  0.64039877  0.21023669     1.06100
O70         O  0.23622888  0.55981377  0.25071584    -1.11100
O71         O  0.16536524  0.49287396  0.21902920    -0.73500
O72         O  0.17043022  0.54699955  0.21969990    -0.77000
O73         O  0.30235163  0.63124868  0.28251706    -0.77700
C74         C  0.15609808  0.51316186  0.20982723     0.97600
O75         O  0.17056545  0.54616122  0.28259423    -0.75600
O76         O  0.23596977  0.50182589  0.21852025    -0.80800
C77         C  0.27118303  0.52650835  0.29106308     1.00200
C78         C  0.27106136  0.52755739  0.20895314     1.06100
O79         O  0.29599718  0.56193148  0.28170548    -0.76500
C80         C  0.15623986  0.51207292  0.29191452     1.04400
C81         C  0.30480496  0.49280269  0.35641620     0.18500
C82         C  0.27557609  0.46155514  0.37431042    -0.10600
C83         C  0.28669211  0.45068160  0.39748294    -0.09600
C84         C  0.32708663  0.47099897  0.40286780     0.20100
C85         C  0.35631490  0.50201685  0.38482812    -0.13500
C86         C  0.34519246  0.51289011  0.36163904    -0.11800
C87         C  0.33848193  0.46094978  0.42747657     0.01000
C88         C  0.34731933  0.45315317  0.44886746    -0.31800
C89         C  0.29334850  0.50465882  0.33303814     0.02400
C90         C  0.28340871  0.51466708  0.31375692    -0.33500
H91         H  0.24426690  0.44585905  0.37049273     0.13500
H92         H  0.26385483  0.42675779  0.41135618     0.13300
H93         H  0.38764226  0.51802971  0.38885717     0.13100
H94         H  0.36803925  0.53713109  0.34795693     0.12200
C95         C  0.30545673  0.49510691  0.14320338     0.18500
C96         C  0.27968098  0.45572826  0.13306465    -0.10600
C97         C  0.29097768  0.44486159  0.10998834    -0.11400
C98         C  0.32810863  0.47332100  0.09696733     0.20100
C99         C  0.35402299  0.51260386  0.10727114    -0.13500
C100        C  0.34272986  0.52346763  0.13034376    -0.11800
C101        C  0.33904954  0.46261865  0.07246249     0.01000
C102        C  0.34765464  0.45429594  0.05122326    -0.31800
C103        C  0.29346553  0.50654869  0.16651048     0.02400
C104        C  0.28330637  0.51620921  0.18589465    -0.33500
H105        H  0.25078291  0.43355877  0.14283893     0.13500
H106        H  0.27064866  0.41443667  0.10213782     0.13300
H107        H  0.38274409  0.53488464  0.09730660     0.13100
H108        H  0.36288661  0.55400030  0.13799935     0.12200
C109        C  0.34152623  0.76721014  0.40467729     0.18500
C110        C  0.32180652  0.76732570  0.38135411    -0.10600
C111        C  0.31135159  0.74225272  0.35819997    -0.11400
C112        C  0.32055724  0.71694297  0.35826660     0.20100
C113        C  0.34057592  0.71706626  0.38148670    -0.13500
C114        C  0.35103053  0.74214199  0.40464566    -0.11800
C115        C  0.30844087  0.69011025  0.33487588     0.01000
C116        C  0.29687873  0.66711157  0.31541118    -0.31800
C117        C  0.35080734  0.79175003  0.42902337     0.02400
C118        C  0.35739977  0.81077952  0.45010120    -0.33500
H119        H  0.31416451  0.78645768  0.38120116     0.13500
H120        H  0.29576202  0.74230492  0.34039671     0.13300
H121        H  0.34772660  0.69753006  0.38180686     0.13100
H122        H  0.36612716  0.74168824  0.42262256     0.12200
C123        C  0.34003882  0.76873057  0.09840448     0.18500
C124        C  0.36369412  0.75878927  0.10568875    -0.10600
C125        C  0.35336938  0.73385839  0.12893806    -0.11400
C126        C  0.31933353  0.71875741  0.14496876     0.20100
C127        C  0.29589227  0.72899451  0.13782893    -0.13500
C128        C  0.30621182  0.75391173  0.11459416    -0.11800
C129        C  0.30778728  0.69197374  0.16828314     0.01000
C130        C  0.29655104  0.66874087  0.18754130    -0.31800
C131        C  0.34959692  0.79288120  0.07374577     0.02400
C132        C  0.35648771  0.81152885  0.05237391    -0.33500
H133        H  0.38981671  0.76994246  0.09323407     0.13500
H134        H  0.37164483  0.72605035  0.13422946     0.13300
H135        H  0.26945331  0.71739921  0.15003824     0.13100
H136        H  0.28761374  0.76126067  0.10907640     0.12200
C137        C  0.07782997  0.47192447  0.14422418     0.18500
C138        C  0.07854547  0.45225437  0.12111377    -0.10600
C139        C  0.05339142  0.44095614  0.09790119    -0.11400
C140        C  0.02741049  0.44926993  0.09770228     0.20100
C141        C  0.02641882  0.46859500  0.12093150    -0.13500
C142        C  0.05156964  0.47988741  0.14414869    -0.11800
C143        C  0.00290473  0.43927345  0.07323674     0.01000
C144        C  0.98403332  0.43217387  0.05199436    -0.31800
C145        C  0.10479774  0.48497477  0.16761990     0.02400
C146        C  0.12799342  0.49716385  0.18698111    -0.33500
H147        H  0.09881127  0.44605410  0.12091105     0.13500
H148        H  0.05451775  0.42617297  0.07999753     0.13300
H149        H  0.00656839  0.47531650  0.12095029     0.13100
H150        H  0.05085610  0.49518672  0.16187388     0.12200
C151        C  0.02756059  0.44842044  0.40400670     0.18500
C152        C  0.03059330  0.47225349  0.38239772    -0.10600
C153        C  0.05568274  0.48325600  0.35918284    -0.11400
C154        C  0.07786432  0.47049331  0.35748319     0.20100
C155        C  0.07454710  0.44633782  0.37895312    -0.13500
C156        C  0.04945127  0.43533407  0.40217734    -0.11800
C157        C  0.10488910  0.48325459  0.33416236     0.01000
C158        C  0.12813821  0.49552884  0.31481355    -0.31800
C159        C  0.00315800  0.43861566  0.42851669     0.02400
C160        C  0.98426362  0.43170042  0.44972156    -0.33500
H161        H  0.01393965  0.48267978  0.38365727     0.13500
H162        H  0.05812766  0.50205329  0.34274116     0.13300
H163        H  0.09166065  0.43641281  0.37789516     0.13100
H164        H  0.04745930  0.41703704  0.41883299     0.12200
C165        C  0.47866568  0.32635799  0.14437447     0.18500
C166        C  0.44677535  0.29695935  0.12700844    -0.10600
C167        C  0.43582755  0.30800670  0.10384380    -0.11400
C168        C  0.45670056  0.34850797  0.09793731     0.20100
C169        C  0.48841723  0.37793057  0.11542140    -0.13500
C170        C  0.49936964  0.36687390  0.13860880    -0.11800
C171        C  0.44633817  0.35974378  0.07341677     0.01000
C172        C  0.43806999  0.36825254  0.05209969    -0.31800
C173        C  0.49045509  0.31486413  0.16777656     0.02400
C174        C  0.50013463  0.30459353  0.18705839    -0.33500
H175        H  0.43060023  0.26555168  0.13124617     0.13500
H176        H  0.41135770  0.28501324  0.09040354     0.13300
H177        H  0.50485876  0.40933804  0.11098440     0.13100
H178        H  0.52411271  0.38985544  0.15187799     0.12200
C179        C  0.45819423  0.34856288  0.40431312     0.18500
C180        C  0.43109508  0.32642850  0.38210063    -0.10600
C181        C  0.44170409  0.31499001  0.35893119    -0.11400
C182        C  0.47943785  0.32561965  0.35789782     0.20100
C183        C  0.50659299  0.34794400  0.38003374    -0.13500
C184        C  0.49599407  0.35937426  0.40318194    -0.11800
C185        C  0.49020017  0.31329621  0.33434643     0.01000
C186        C  0.49954968  0.30294477  0.31487556    -0.31800
C187        C  0.44700927  0.35933023  0.42862841     0.02400
C188        C  0.43833315  0.36775436  0.44977299    -0.33500
H189        H  0.40174513  0.31779883  0.38279277     0.13500
H190        H  0.42045674  0.29769996  0.34194197     0.13300
H191        H  0.53582855  0.35629740  0.37947286     0.13100
H192        H  0.51713975  0.37637652  0.42027625     0.12200
C193        C  0.43290720  0.04580328  0.40285618     0.18500
C194        C  0.45769122  0.04991344  0.38162421    -0.10600
C195        C  0.46853340  0.07508103  0.35844848    -0.11400
C196        C  0.45465402  0.09625570  0.35641427     0.20100
C197        C  0.42954827  0.09184850  0.37750205    -0.13500
C198        C  0.41869252  0.06666334  0.40068030    -0.11800
C199        C  0.46715578  0.12331576  0.33311742     0.01000
C200        C  0.47920067  0.14660920  0.31378765    -0.31800
C201        C  0.42335289  0.02148585  0.42740198     0.02400
C202        C  0.41656610  0.00279009  0.44872082    -0.33500
H203        H  0.46899279  0.03406593  0.38316011     0.13500
H204        H  0.48806259  0.07837243  0.34229981     0.13300
H205        H  0.41875063  0.10817760  0.37618170     0.13100
H206        H  0.39965207  0.06383335  0.41704888     0.12200
C207        C  0.43392467  0.04743954  0.09665659     0.18500
C208        C  0.40964418  0.05629040  0.10489660    -0.10600
C209        C  0.42053558  0.08159572  0.12800810    -0.11400
C210        C  0.45575603  0.09814029  0.14292814     0.20100
C211        C  0.47982130  0.08900445  0.13481216    -0.13500
C212        C  0.46894559  0.06373595  0.11173374    -0.11800
C213        C  0.46776083  0.12500604  0.16626121     0.01000
C214        C  0.47965155  0.14805982  0.18572551    -0.31800
C215        C  0.42377795  0.02284614  0.07217146     0.02400
C216        C  0.41672473  0.00381994  0.05099636    -0.33500
H217        H  0.38257471  0.04397069  0.09330993     0.13500
H218        H  0.40173259  0.08850140  0.13408176     0.13300
H219        H  0.50713942  0.10167337  0.14617688     0.13100
H220        H  0.48801687  0.05722624  0.10548033     0.12200
C221        C  0.70007232  0.33666226  0.35717105     0.18500
C222        C  0.70872994  0.31199203  0.36473361    -0.10600
C223        C  0.73356925  0.32194973  0.38786992    -0.11400
C224        C  0.74990471  0.35665170  0.40354565     0.20100
C225        C  0.74149834  0.38150455  0.39586317    -0.13500
C226        C  0.71663819  0.37153879  0.37270575    -0.11800
C227        C  0.77412519  0.36596702  0.42805313     0.01000
C228        C  0.79287605  0.37269562  0.44929046    -0.31800
C229        C  0.67355954  0.32560342  0.33384268     0.02400
C230        C  0.65066081  0.31468038  0.31446493    -0.33500
H231        H  0.69601179  0.28491166  0.35290216     0.13500
H232        H  0.73972351  0.30242936  0.39369251     0.13300
H233        H  0.75383493  0.40832133  0.40791668     0.13100
H234        H  0.71007624  0.39078463  0.36707791     0.12200
C235        C  0.70080339  0.33953982  0.14370673     0.18500
C236        C  0.69818090  0.35583177  0.11918342    -0.10600
C237        C  0.72288687  0.36566013  0.09595298    -0.11400
C238        C  0.75032224  0.35924643  0.09714802     0.20100
C239        C  0.75324658  0.34335317  0.12178399    -0.13500
C240        C  0.72852884  0.33351424  0.14501734    -0.11800
C241        C  0.77442923  0.36773796  0.07274900     0.01000
C242        C  0.79304556  0.37383674  0.05156582    -0.31800
C243        C  0.67417116  0.32773124  0.16712799     0.02400
C244        C  0.65114458  0.31627151  0.18652112    -0.33500
H245        H  0.67675669  0.36048351  0.11790442     0.13500
H246        H  0.72028478  0.37780553  0.07696722     0.13300
H247        H  0.77425696  0.33814595  0.12290077     0.13100
H248        H  0.73070131  0.32079910  0.16384411     0.12200
C249        C  0.81300491  0.37994738  0.52538231     0.81700
N250        N  0.84992695  0.39109468  0.52547828    -0.76600
C251        C  0.86851399  0.39646917  0.00057024     0.84200
N252        N  0.84987503  0.39057802  0.97558572    -0.76500
C253        C  0.81294723  0.37943239  0.97554116     0.84200
N254        N  0.79455962  0.37408499  0.50042848    -0.78300
C255        C  0.40989986  0.98335645  0.52490677     0.81700
N256        N  0.41567413  0.00166165  0.99986082    -0.76600
C257        C  0.40987796  0.98286912  0.97506911     0.84200
N258        N  0.39842442  0.94570898  0.97529564    -0.76500
C259        C  0.39263605  0.92721735  0.00036851     0.84200
N260        N  0.39844556  0.94619701  0.52518412    -0.78300
C261        C  0.42895071  0.37690812  0.97592028     0.81700
N262        N  0.43762815  0.36874232  0.00093350    -0.76600
C263        C  0.42889203  0.37721665  0.52577273     0.84200
N264        N  0.41138767  0.39388292  0.52562355    -0.76500
C265        C  0.40260365  0.40213453  0.00059199     0.84200
N266        N  0.41144792  0.39357946  0.97572972    -0.78300
Fe267      Fe  0.56691610  0.22937370  0.75009638     1.65800
Fe268      Fe  0.48441353  0.22262150  0.75031625     1.73200
Fe269      Fe  0.57845544  0.31484818  0.75077571     1.54400
O270        O  0.61495190  0.32109637  0.78224098    -0.80200
O271        O  0.48555958  0.25650213  0.71912485    -0.78500
O272        O  0.60732679  0.26550615  0.78168274    -0.82700
O273        O  0.60754496  0.26626495  0.71879208    -0.77500
O274        O  0.54623698  0.31545982  0.78239956    -0.79300
O275        O  0.47595348  0.18533668  0.71845658    -0.82100
C276        C  0.62313530  0.30069255  0.70941057     0.98700
C277        C  0.62282426  0.29967829  0.79153876     1.06100
O278        O  0.54325339  0.25562301  0.75039776    -1.11100
O279        O  0.47564371  0.18446711  0.78156530    -0.73500
O280        O  0.52938468  0.18911516  0.78137619    -0.77000
O281        O  0.61520993  0.32188526  0.71914507    -0.77700
C282        C  0.49555680  0.17490115  0.79098271     0.97600
O283        O  0.52958533  0.18980468  0.71846739    -0.75600
O284        O  0.48522987  0.25564299  0.78209925    -0.80800
C285        C  0.51136500  0.29179243  0.70977908     1.00200
C286        C  0.51095304  0.29068083  0.79186513     1.06100
O287        O  0.54655426  0.31632506  0.71940866    -0.76500
C288        C  0.49588310  0.17589966  0.70881215     1.04400
C289        C  0.96394517  0.42530216  0.52573050     0.81700
N290        N  0.92703523  0.41418953  0.52566022    -0.76600
C291        C  0.90846897  0.40841837  0.50066627     0.84200
N292        N  0.92714268  0.41394521  0.97576819    -0.76500
C293        C  0.96405553  0.42506284  0.97588945     0.84200
N294        N  0.98241849  0.43078940  0.50085671    -0.78300
C295        C  0.36333883  0.83148300  0.52600485     0.81700
N296        N  0.35793193  0.81282691  0.50123017    -0.76600
C297        C  0.36380152  0.83113715  0.97616543     0.84200
N298        N  0.37501373  0.86819989  0.97585201    -0.76500
C299        C  0.38046918  0.88705747  0.50065614     0.84200
N300        N  0.37455501  0.86853973  0.52574227    -0.78300
C301        C  0.35706735  0.44519915  0.52506727     0.81700
N302        N  0.34818559  0.45315668  0.50005043    -0.76600
C303        C  0.35691034  0.44465412  0.97521562     0.84200
N304        N  0.37456198  0.42814009  0.97537819    -0.76500
C305        C  0.38354315  0.42009709  0.50040946     0.84200
N306        N  0.37472358  0.42868459  0.52526444    -0.78300
Fe307      Fe  0.21047367  0.58396299  0.75125067     1.65800
Fe308      Fe  0.20289421  0.50076912  0.75030712     1.73200
Fe309      Fe  0.29528403  0.59472599  0.75059293     1.54400
O310        O  0.30221286  0.63206800  0.71943701    -0.80200
O311        O  0.23608107  0.50099871  0.78149243    -0.78500
O312        O  0.24703167  0.62491168  0.71997824    -0.82700
O313        O  0.24715631  0.62406573  0.78286651    -0.77500
O314        O  0.29590403  0.56273835  0.71869975    -0.79300
O315        O  0.16546102  0.49201137  0.78208531    -0.82100
C316        C  0.28134179  0.63931024  0.79233866     0.98700
C317        C  0.28116880  0.64039877  0.71023670     1.06100
O318        O  0.23622886  0.55981375  0.75071582    -1.11100
O319        O  0.16536516  0.49287387  0.71902919    -0.73500
O320        O  0.17043036  0.54699959  0.71969981    -0.77000
O321        O  0.30235166  0.63124859  0.78251702    -0.77700
C322        C  0.15609809  0.51316184  0.70982720     0.97600
O323        O  0.17056542  0.54616120  0.78259424    -0.75600
O324        O  0.23596978  0.50182586  0.71852021    -0.80800
C325        C  0.27118301  0.52650839  0.79106309     1.00200
C326        C  0.27106137  0.52755735  0.70895310     1.06100
O327        O  0.29599718  0.56193150  0.78170544    -0.76500
C328        C  0.15623985  0.51207290  0.79191453     1.04400
C329        C  0.30480492  0.49280266  0.85641622     0.18500
C330        C  0.27557605  0.46155512  0.87431045    -0.10600
C331        C  0.28669207  0.45068158  0.89748296    -0.09600
C332        C  0.32708659  0.47099895  0.90286779     0.20100
C333        C  0.35631486  0.50201684  0.88482813    -0.13500
C334        C  0.34519242  0.51289009  0.86163906    -0.11800
C335        C  0.33848191  0.46094972  0.92747653     0.01000
C336        C  0.34731929  0.45315315  0.94886746    -0.31800
C337        C  0.29334847  0.50465880  0.83303816     0.02400
C338        C  0.28340870  0.51466711  0.81375695    -0.33500
H339        H  0.24426685  0.44585903  0.87049276     0.13500
H340        H  0.26385480  0.42675776  0.91135620     0.13300
H341        H  0.38764222  0.51802968  0.88885718     0.13100
H342        H  0.36803922  0.53713107  0.84795695     0.12200
C343        C  0.30545678  0.49510700  0.64320336     0.18500
C344        C  0.27968103  0.45572836  0.63306466    -0.10600
C345        C  0.29097767  0.44486163  0.60998838    -0.11400
C346        C  0.32810864  0.47332102  0.59696735     0.20100
C347        C  0.35402300  0.51260389  0.60727115    -0.13500
C348        C  0.34272994  0.52346776  0.63034376    -0.11800
C349        C  0.33904950  0.46261862  0.57246249     0.01000
C350        C  0.34765459  0.45429592  0.55122324    -0.31800
C351        C  0.29346555  0.50654874  0.66651044     0.02400
C352        C  0.28330640  0.51620915  0.68589467    -0.33500
H353        H  0.25078292  0.43355889  0.64283894     0.13500
H354        H  0.27064864  0.41443671  0.60213790     0.13300
H355        H  0.38274413  0.53488466  0.59730660     0.13100
H356        H  0.36288662  0.55400033  0.63799931     0.12200
C357        C  0.34152628  0.76721012  0.90467725     0.18500
C358        C  0.32180656  0.76732567  0.88135406    -0.10600
C359        C  0.31135160  0.74225266  0.85819993    -0.11400
C360        C  0.32055738  0.71694304  0.85826649     0.20100
C361        C  0.34057609  0.71706628  0.88148658    -0.13500
C362        C  0.35103056  0.74214194  0.90464563    -0.11800
C363        C  0.30844094  0.69011027  0.83487578     0.01000
C364        C  0.29687878  0.66711149  0.81541114    -0.31800
C365        C  0.35080732  0.79174997  0.92902336     0.02400
C366        C  0.35739971  0.81077946  0.95010120    -0.33500
H367        H  0.31416451  0.78645760  0.88120112     0.13500
H368        H  0.29576190  0.74230476  0.84039671     0.13300
H369        H  0.34772677  0.69753019  0.88180669     0.13100
H370        H  0.36612707  0.74168810  0.92262252     0.12200
C371        C  0.34003894  0.76873062  0.59840444     0.18500
C372        C  0.36369412  0.75878918  0.60568868    -0.10600
C373        C  0.35336932  0.73385815  0.62893794    -0.11400
C374        C  0.31933357  0.71875739  0.64496875     0.20100
C375        C  0.29589253  0.72899475  0.63782898    -0.13500
C376        C  0.30621204  0.75391197  0.61459421    -0.11800
C377        C  0.30778730  0.69197372  0.66828315     0.01000
C378        C  0.29655110  0.66874086  0.68754131    -0.31800
C379        C  0.34959700  0.79288118  0.57374569     0.02400
C380        C  0.35648790  0.81152892  0.55237387    -0.33500
H381        H  0.38981671  0.76994229  0.59323397     0.13500
H382        H  0.37164453  0.72604989  0.63422921     0.13300
H383        H  0.26945358  0.71739955  0.65003839     0.13100
H384        H  0.28761409  0.76126101  0.60907649     0.12200
C385        C  0.07783001  0.47192446  0.64422416     0.18500
C386        C  0.07854553  0.45225433  0.62111377    -0.10600
C387        C  0.05339142  0.44095609  0.59790121    -0.11400
C388        C  0.02741048  0.44926987  0.59770229     0.20100
C389        C  0.02641884  0.46859498  0.62093149    -0.13500
C390        C  0.05156972  0.47988745  0.64414863    -0.11800
C391        C  0.00290470  0.43927342  0.57323677     0.01000
C392        C  0.98403328  0.43217384  0.55199439    -0.31800
C393        C  0.10479773  0.48497474  0.66761991     0.02400
C394        C  0.12799338  0.49716381  0.68698113    -0.33500
H395        H  0.09881127  0.44605407  0.62091104     0.13500
H396        H  0.05451773  0.42617291  0.57999754     0.13300
H397        H  0.00656844  0.47531654  0.62095025     0.13100
H398        H  0.05085628  0.49518689  0.66187381     0.12200
C399        C  0.02756056  0.44842041  0.90400665     0.18500
C400        C  0.03059329  0.47225350  0.88239770    -0.10600
C401        C  0.05568270  0.48325599  0.85918282    -0.11400
C402        C  0.07786425  0.47049326  0.85748314     0.20100
C403        C  0.07454707  0.44633780  0.87895307    -0.13500
C404        C  0.04945119  0.43533400  0.90217724    -0.11800
C405        C  0.10488906  0.48325458  0.83416235     0.01000
C406        C  0.12813820  0.49552883  0.81481356    -0.31800
C407        C  0.00315795  0.43861561  0.92851661     0.02400
C408        C  0.98426362  0.43170039  0.94972151    -0.33500
H409        H  0.01393965  0.48267981  0.88365729     0.13500
H410        H  0.05812764  0.50205332  0.84274115     0.13300
H411        H  0.09166065  0.43641283  0.87789509     0.13100
H412        H  0.04745912  0.41703683  0.91883289     0.12200
C413        C  0.47866564  0.32635796  0.64437450     0.18500
C414        C  0.44677531  0.29695933  0.62700847    -0.10600
C415        C  0.43582751  0.30800668  0.60384383    -0.11400
C416        C  0.45670052  0.34850795  0.59793734     0.20100
C417        C  0.48841721  0.37793055  0.61542142    -0.13500
C418        C  0.49936961  0.36687387  0.63860883    -0.11800
C419        C  0.44633813  0.35974376  0.57341679     0.01000
C420        C  0.43806994  0.36825252  0.55209972    -0.31800
C421        C  0.49045505  0.31486410  0.66777659     0.02400
C422        C  0.50013458  0.30459349  0.68705843    -0.33500
H423        H  0.43060019  0.26555165  0.63124620     0.13500
H424        H  0.41135766  0.28501321  0.59040357     0.13300
H425        H  0.50485875  0.40933801  0.61098439     0.13100
H426        H  0.52411268  0.38985541  0.65187801     0.12200
C427        C  0.45819425  0.34856282  0.90431313     0.18500
C428        C  0.43109499  0.32642821  0.88210072    -0.10600
C429        C  0.44170397  0.31498973  0.85893124    -0.11400
C430        C  0.47943781  0.32561957  0.85789784     0.20100
C431        C  0.50659302  0.34794406  0.88003368    -0.13500
C432        C  0.49599421  0.35937447  0.90318184    -0.11800
C433        C  0.49020014  0.31329618  0.83434646     0.01000
C434        C  0.49954971  0.30294483  0.81487558    -0.31800
C435        C  0.44700932  0.35933027  0.92862839     0.02400
C436        C  0.43833323  0.36775453  0.94977292    -0.33500
H437        H  0.40174499  0.31779841  0.88279294     0.13500
H438        H  0.42045663  0.29769962  0.84194210     0.13300
H439        H  0.53582865  0.35629753  0.87947272     0.13100
H440        H  0.51714002  0.37637701  0.92027605     0.12200
C441        C  0.43290716  0.04580329  0.90285611     0.18500
C442        C  0.45769122  0.04991346  0.88162418    -0.10600
C443        C  0.46853339  0.07508101  0.85844845    -0.11400
C444        C  0.45465399  0.09625567  0.85641419     0.20100
C445        C  0.42954830  0.09184858  0.87750196    -0.13500
C446        C  0.41869250  0.06666338  0.90068019    -0.11800
C447        C  0.46715578  0.12331576  0.83311737     0.01000
C448        C  0.47920068  0.14660922  0.81378763    -0.31800
C449        C  0.42335281  0.02148579  0.92740190     0.02400
C450        C  0.41656605  0.00279004  0.94872075    -0.33500
H451        H  0.46899278  0.03406594  0.88316013     0.13500
H452        H  0.48806261  0.07837241  0.84229980     0.13300
H453        H  0.41875081  0.10817777  0.87618159     0.13100
H454        H  0.39965202  0.06383342  0.91704873     0.12200
C455        C  0.43392467  0.04743957  0.59665657     0.18500
C456        C  0.40964415  0.05629039  0.60489661    -0.10600
C457        C  0.42053553  0.08159568  0.62800812    -0.11400
C458        C  0.45575598  0.09814025  0.64292816     0.20100
C459        C  0.47982127  0.08900442  0.63481216    -0.13500
C460        C  0.46894556  0.06373593  0.61173374    -0.11800
C461        C  0.46776084  0.12500601  0.66626123     0.01000
C462        C  0.47965165  0.14805979  0.68572554    -0.31800
C463        C  0.42377792  0.02284612  0.57217146     0.02400
C464        C  0.41672468  0.00381990  0.55099636    -0.33500
H465        H  0.38257465  0.04397064  0.59330995     0.13500
H466        H  0.40173253  0.08850135  0.63408180     0.13300
H467        H  0.50713935  0.10167335  0.64617688     0.13100
H468        H  0.48801681  0.05722619  0.60548033     0.12200
C469        C  0.70007233  0.33666224  0.85717097     0.18500
C470        C  0.70872987  0.31199197  0.86473359    -0.10600
C471        C  0.73356919  0.32194967  0.88786988    -0.11400
C472        C  0.74990477  0.35665173  0.90354555     0.20100
C473        C  0.74149834  0.38150454  0.89586303    -0.13500
C474        C  0.71663820  0.37153879  0.87270562    -0.11800
C475        C  0.77412531  0.36596705  0.92805301     0.01000
C476        C  0.79287607  0.37269560  0.94929041    -0.31800
C477        C  0.67355950  0.32560337  0.83384267     0.02400
C478        C  0.65066079  0.31468035  0.81446494    -0.33500
H479        H  0.69601165  0.28491154  0.85290218     0.13500
H480        H  0.73972340  0.30242928  0.89369251     0.13300
H481        H  0.75383491  0.40832136  0.90791653     0.13100
H482        H  0.71007621  0.39078460  0.86707775     0.12200
C483        C  0.70080335  0.33953979  0.64370674     0.18500
C484        C  0.69818087  0.35583175  0.61918344    -0.10600
C485        C  0.72288681  0.36566010  0.59595298    -0.11400
C486        C  0.75032216  0.35924637  0.59714801     0.20100
C487        C  0.75324656  0.34335317  0.62178399    -0.13500
C488        C  0.72852882  0.33351423  0.64501734    -0.11800
C489        C  0.77442918  0.36773794  0.57274900     0.01000
C490        C  0.79304554  0.37383673  0.55156583    -0.31800
C491        C  0.67417113  0.32773122  0.66712801     0.02400
C492        C  0.65114455  0.31627149  0.68652114    -0.33500
H493        H  0.67675667  0.36048350  0.61790445     0.13500
H494        H  0.72028473  0.37780553  0.57696723     0.13300
H495        H  0.77425699  0.33814603  0.62290078     0.13100
H496        H  0.73070133  0.32079913  0.66384413     0.12200
loop_ 
_geom_bond_atom_site_label_1 
_geom_bond_atom_site_label_2 
_geom_bond_distance 
_geom_bond_site_symmetry_2 
_ccdc_geom_bond_type 
C1            N2   1.357       .  A
C1            N6   1.355       .  A
C1          C242   1.435       .  S
N2          C251   1.360       .  A
C3            N4   1.360       .  A
C3          N250   1.360       .  A
C3          C291   1.471       .  S
N4            C5   1.357       .  A
C5          N254   1.355       .  A
C5          C228   1.435       .  S
N6          C253   1.355   1_554  A
C7           N12   1.357       .  A
C7          N256   1.355   1_564  A
C7          C216   1.435   1_565  S
N8            C9   1.355   1_545  A
N8          C255   1.355   1_545  A
C9           N10   1.357       .  A
C9          C202   1.434   1_565  S
N10          C11   1.360       .  A
C11         N260   1.360       .  A
C11         C299   1.470       .  S
N12         C259   1.360       .  A
C13          N14   1.356       .  A
C13          N18   1.357       .  A
C13         C188   1.435       .  S
N14         C263   1.356       .  A
C15          N16   1.357       .  A
C15         N262   1.356       .  A
C15         C172   1.435       .  S
N16         C265   1.360       .  A
C17          N18   1.360       .  A
C17         N264   1.360       .  A
C17         C305   1.470       .  S
Fe19         O35   2.061       .  S
Fe19         O25   2.061       .  S
Fe19         O32   2.060       .  S
Fe19         O24   2.061       .  S
Fe19         O30   1.982       .  S
Fe20         O23   2.065       .  S
Fe20         O27   2.067       .  S
Fe20         O31   2.067       .  S
Fe20         O36   2.065       .  S
Fe20         O30   1.985       .  S
Fe21         O39   2.065       .  S
Fe21         O26   2.065       .  S
Fe21         O33   2.067       .  S
Fe21         O22   2.067       .  S
Fe21         O30   1.985       .  S
O22          C29   1.267       .  A
O23          C37   1.267       .  A
O24          C29   1.266       .  A
O25          C28   1.266       .  A
O26          C38   1.267       .  A
O27          C40   1.267       .  A
C28         C244   1.434       .  S
C28          O33   1.267       .  A
C29         C230   1.434       .  S
O31          C34   1.267       .  A
O32          C34   1.266       .  A
C34         C200   1.434       .  S
O35          C40   1.266       .  A
O36          C38   1.267       .  A
C37         C174   1.435       .  S
C37          O39   1.267       .  A
C38         C186   1.435       .  S
C40         C214   1.434       .  S
C41          N42   1.357       .  A
C41          N46   1.355       .  A
C41         C144   1.435       .  S
N42          C43   1.360       .  A
C43         N292   1.360   1_554  A
C43         C251   1.471       .  S
N44          C45   1.357       .  A
N44         C291   1.360       .  A
C45         N294   1.355       .  A
C45         C160   1.435       .  S
N46         C293   1.355   1_554  A
C47          N48   1.355       .  A
C47          N52   1.357       .  A
C47         C132   1.435       .  S
N48         C297   1.355   1_554  A
C49          N50   1.357       .  A
C49         N296   1.355       .  A
C49         C118   1.435       .  S
N50         C299   1.360       .  A
C51          N52   1.360       .  A
C51         N298   1.360   1_554  A
C51         C259   1.470       .  S
C53          N54   1.356       .  A
C53          N58   1.357       .  A
C53         C102   1.435       .  S
N54         C303   1.356   1_554  A
C55          N56   1.357       .  A
C55         N302   1.356       .  A
C55          C88   1.435       .  S
N56         C305   1.360       .  A
C57          N58   1.360       .  A
C57         N304   1.360   1_554  A
C57         C265   1.470       .  S
Fe59         O75   2.061       .  S
Fe59         O65   2.062       .  S
Fe59         O72   2.062       .  S
Fe59         O64   2.061       .  S
Fe59         O70   1.982       .  S
Fe60         O63   2.064       .  S
Fe60         O67   2.067       .  S
Fe60         O71   2.066       .  S
Fe60         O76   2.064       .  S
Fe60         O70   1.985       .  S
Fe61         O79   2.065       .  S
Fe61         O66   2.066       .  S
Fe61         O73   2.068       .  S
Fe61         O62   2.068       .  S
Fe61         O70   1.985       .  S
O62          C69   1.267       .  A
O63          C77   1.267       .  A
O64          C69   1.266       .  A
O65          C68   1.266       .  A
O66          C78   1.267       .  A
O67          C80   1.267       .  A
C68         C116   1.435       .  S
C68          O73   1.267       .  A
C69         C130   1.434       .  S
O71          C74   1.267       .  A
O72          C74   1.266       .  A
C74         C146   1.434       .  S
O75          C80   1.266       .  A
O76          C78   1.267       .  A
C77          C90   1.434       .  S
C77          O79   1.267       .  A
C78         C104   1.435       .  S
C80         C158   1.434       .  S
C81          C89   1.439       .  S
C81          C82   1.401       .  A
C81          C86   1.401       .  A
C82          C83   1.398       .  A
C82          H91   1.083       .  S
C83          C84   1.401       .  A
C83          H92   1.083       .  S
C84          C87   1.439       .  S
C84          C85   1.401       .  A
C85          C86   1.399       .  A
C85          H93   1.083       .  S
C86          H94   1.083       .  S
C87          C88   1.206       .  T
C89          C90   1.206       .  T
C95         C103   1.440       .  S
C95          C96   1.401       .  A
C95         C100   1.401       .  A
C96          C97   1.399       .  A
C96         H105   1.083       .  S
C97          C98   1.401       .  A
C97         H106   1.083       .  S
C98         C101   1.440       .  S
C98          C99   1.401       .  A
C99         C100   1.399       .  A
C99         H107   1.083       .  S
C100        H108   1.083       .  S
C101        C102   1.206       .  T
C103        C104   1.206       .  T
C109        C117   1.440       .  S
C109        C110   1.401       .  A
C109        C114   1.402       .  A
C110        C111   1.399       .  A
C110        H119   1.083       .  S
C111        C112   1.401       .  A
C111        H120   1.083       .  S
C112        C115   1.440       .  S
C112        C113   1.401       .  A
C113        C114   1.399       .  A
C113        H121   1.083       .  S
C114        H122   1.083       .  S
C115        C116   1.206       .  T
C117        C118   1.206       .  T
C123        C131   1.439       .  S
C123        C124   1.402       .  A
C123        C128   1.401       .  A
C124        C125   1.399       .  A
C124        H133   1.083       .  S
C125        C126   1.401       .  A
C125        H134   1.083       .  S
C126        C129   1.439       .  S
C126        C127   1.401       .  A
C127        C128   1.398       .  A
C127        H135   1.083       .  S
C128        H136   1.083       .  S
C129        C130   1.205       .  T
C131        C132   1.205       .  T
C137        C145   1.439       .  S
C137        C138   1.401       .  A
C137        C142   1.401       .  A
C138        C139   1.399       .  A
C138        H147   1.083       .  S
C139        C140   1.401       .  A
C139        H148   1.083       .  S
C140        C143   1.439       .  S
C140        C141   1.401       .  A
C141        C142   1.399       .  A
C141        H149   1.083       .  S
C142        H150   1.083       .  S
C143        C144   1.205   1_455  T
C145        C146   1.206       .  T
C151        C159   1.439       .  S
C151        C152   1.401       .  A
C151        C156   1.402       .  A
C152        C153   1.398       .  A
C152        H161   1.083       .  S
C153        C154   1.401       .  A
C153        H162   1.083       .  S
C154        C157   1.439       .  S
C154        C155   1.401       .  A
C155        C156   1.399       .  A
C155        H163   1.083       .  S
C156        H164   1.083       .  S
C157        C158   1.205       .  T
C159        C160   1.205   1_455  T
C165        C173   1.439       .  S
C165        C166   1.401       .  A
C165        C170   1.402       .  A
C166        C167   1.398       .  A
C166        H175   1.083       .  S
C167        C168   1.401       .  A
C167        H176   1.083       .  S
C168        C171   1.439       .  S
C168        C169   1.401       .  A
C169        C170   1.399       .  A
C169        H177   1.083       .  S
C170        H178   1.083       .  S
C171        C172   1.206       .  T
C173        C174   1.206       .  T
C179        C187   1.440       .  S
C179        C180   1.401       .  A
C179        C184   1.401       .  A
C180        C181   1.400       .  A
C180        H189   1.083       .  S
C181        C182   1.402       .  A
C181        H190   1.083       .  S
C182        C185   1.440       .  S
C182        C183   1.401       .  A
C183        C184   1.398       .  A
C183        H191   1.083       .  S
C184        H192   1.084       .  S
C185        C186   1.206       .  T
C187        C188   1.206       .  T
C193        C201   1.439       .  S
C193        C194   1.401       .  A
C193        C198   1.402       .  A
C194        C195   1.398       .  A
C194        H203   1.083       .  S
C195        C196   1.401       .  A
C195        H204   1.083       .  S
C196        C199   1.439       .  S
C196        C197   1.401       .  A
C197        C198   1.399       .  A
C197        H205   1.083       .  S
C198        H206   1.083       .  S
C199        C200   1.205       .  T
C201        C202   1.205       .  T
C207        C215   1.439       .  S
C207        C208   1.402       .  A
C207        C212   1.401       .  A
C208        C209   1.400       .  A
C208        H217   1.083       .  S
C209        C210   1.401       .  A
C209        H218   1.083       .  S
C210        C213   1.439       .  S
C210        C211   1.401       .  A
C211        C212   1.398       .  A
C211        H219   1.084       .  S
C212        H220   1.083       .  S
C213        C214   1.206       .  T
C215        C216   1.205       .  T
C221        C229   1.439       .  S
C221        C222   1.401       .  A
C221        C226   1.401       .  A
C222        C223   1.398       .  A
C222        H231   1.084       .  S
C223        C224   1.401       .  A
C223        H232   1.083       .  S
C224        C227   1.439       .  S
C224        C225   1.402       .  A
C225        C226   1.399       .  A
C225        H233   1.083       .  S
C226        H234   1.083       .  S
C227        C228   1.206       .  T
C229        C230   1.205       .  T
C235        C243   1.439       .  S
C235        C236   1.401       .  A
C235        C240   1.402       .  A
C236        C237   1.399       .  A
C236        H245   1.083       .  S
C237        C238   1.401       .  A
C237        H246   1.083       .  S
C238        C241   1.439       .  S
C238        C239   1.401       .  A
C239        C240   1.399       .  A
C239        H247   1.083       .  S
C240        H248   1.083       .  S
C241        C242   1.205       .  T
C243        C244   1.205       .  T
C249        N250   1.357       .  A
C249        N254   1.355       .  A
C249        C490   1.435       .  S
C251        N252   1.360   1_554  A
N252        C253   1.357       .  A
C253        C476   1.435       .  S
C255        N260   1.357       .  A
C255        C464   1.435   1_565  S
N256        C257   1.355   1_545  A
C257        N258   1.357       .  A
C257        C450   1.434   1_565  S
N258        C259   1.360   1_556  A
C261        N262   1.356   1_556  A
C261        N266   1.357       .  A
C261        C436   1.435       .  S
C263        N264   1.357       .  A
C263        C420   1.435       .  S
C265        N266   1.360   1_554  A
Fe267       O283   2.061       .  S
Fe267       O273   2.061       .  S
Fe267       O280   2.060       .  S
Fe267       O272   2.061       .  S
Fe267       O278   1.982       .  S
Fe268       O271   2.065       .  S
Fe268       O275   2.067       .  S
Fe268       O279   2.067       .  S
Fe268       O284   2.065       .  S
Fe268       O278   1.985       .  S
Fe269       O287   2.065       .  S
Fe269       O274   2.065       .  S
Fe269       O281   2.067       .  S
Fe269       O270   2.067       .  S
Fe269       O278   1.985       .  S
O270        C277   1.267       .  A
O271        C285   1.267       .  A
O272        C277   1.266       .  A
O273        C276   1.266       .  A
O274        C286   1.267       .  A
O275        C288   1.267       .  A
C276        C492   1.434       .  S
C276        O281   1.267       .  A
C277        C478   1.434       .  S
O279        C282   1.267       .  A
O280        C282   1.266       .  A
C282        C448   1.434       .  S
O283        C288   1.266       .  A
O284        C286   1.267       .  A
C285        C422   1.435       .  S
C285        O287   1.267       .  A
C286        C434   1.435       .  S
C288        C462   1.434       .  S
C289        N290   1.357       .  A
C289        N294   1.355       .  A
C289        C392   1.435       .  S
N290        C291   1.360       .  A
N292        C293   1.357       .  A
C293        C408   1.435       .  S
C295        N296   1.355       .  A
C295        N300   1.357       .  A
C295        C380   1.435       .  S
C297        N298   1.357       .  A
C297        C366   1.435       .  S
C299        N300   1.360       .  A
C301        N302   1.356       .  A
C301        N306   1.357       .  A
C301        C350   1.435       .  S
C303        N304   1.357       .  A
C303        C336   1.435       .  S
C305        N306   1.360       .  A
Fe307       O323   2.061       .  S
Fe307       O313   2.062       .  S
Fe307       O320   2.062       .  S
Fe307       O312   2.061       .  S
Fe307       O318   1.982       .  S
Fe308       O311   2.064       .  S
Fe308       O315   2.067       .  S
Fe308       O319   2.066       .  S
Fe308       O324   2.064       .  S
Fe308       O318   1.985       .  S
Fe309       O327   2.065       .  S
Fe309       O314   2.066       .  S
Fe309       O321   2.068       .  S
Fe309       O310   2.068       .  S
Fe309       O318   1.985       .  S
O310        C317   1.267       .  A
O311        C325   1.267       .  A
O312        C317   1.266       .  A
O313        C316   1.266       .  A
O314        C326   1.267       .  A
O315        C328   1.267       .  A
C316        C364   1.435       .  S
C316        O321   1.267       .  A
C317        C378   1.434       .  S
O319        C322   1.267       .  A
O320        C322   1.266       .  A
C322        C394   1.434       .  S
O323        C328   1.266       .  A
O324        C326   1.267       .  A
C325        C338   1.434       .  S
C325        O327   1.267       .  A
C326        C352   1.435       .  S
C328        C406   1.434       .  S
C329        C337   1.439       .  S
C329        C330   1.401       .  A
C329        C334   1.401       .  A
C330        C331   1.398       .  A
C330        H339   1.083       .  S
C331        C332   1.401       .  A
C331        H340   1.083       .  S
C332        C335   1.439       .  S
C332        C333   1.401       .  A
C333        C334   1.399       .  A
C333        H341   1.083       .  S
C334        H342   1.083       .  S
C335        C336   1.206       .  T
C337        C338   1.206       .  T
C343        C351   1.440       .  S
C343        C344   1.401       .  A
C343        C348   1.401       .  A
C344        C345   1.399       .  A
C344        H353   1.083       .  S
C345        C346   1.401       .  A
C345        H354   1.083       .  S
C346        C349   1.440       .  S
C346        C347   1.401       .  A
C347        C348   1.399       .  A
C347        H355   1.083       .  S
C348        H356   1.083       .  S
C349        C350   1.206       .  T
C351        C352   1.206       .  T
C357        C365   1.440       .  S
C357        C358   1.401       .  A
C357        C362   1.402       .  A
C358        C359   1.399       .  A
C358        H367   1.083       .  S
C359        C360   1.401       .  A
C359        H368   1.083       .  S
C360        C363   1.440       .  S
C360        C361   1.401       .  A
C361        C362   1.399       .  A
C361        H369   1.083       .  S
C362        H370   1.083       .  S
C363        C364   1.206       .  T
C365        C366   1.206       .  T
C371        C379   1.439       .  S
C371        C372   1.402       .  A
C371        C376   1.401       .  A
C372        C373   1.399       .  A
C372        H381   1.083       .  S
C373        C374   1.401       .  A
C373        H382   1.083       .  S
C374        C377   1.439       .  S
C374        C375   1.401       .  A
C375        C376   1.398       .  A
C375        H383   1.083       .  S
C376        H384   1.083       .  S
C377        C378   1.205       .  T
C379        C380   1.205       .  T
C385        C393   1.439       .  S
C385        C386   1.401       .  A
C385        C390   1.401       .  A
C386        C387   1.399       .  A
C386        H395   1.083       .  S
C387        C388   1.401       .  A
C387        H396   1.083       .  S
C388        C391   1.439       .  S
C388        C389   1.401       .  A
C389        C390   1.399       .  A
C389        H397   1.083       .  S
C390        H398   1.083       .  S
C391        C392   1.205   1_455  T
C393        C394   1.206       .  T
C399        C407   1.439       .  S
C399        C400   1.401       .  A
C399        C404   1.402       .  A
C400        C401   1.398       .  A
C400        H409   1.083       .  S
C401        C402   1.401       .  A
C401        H410   1.083       .  S
C402        C405   1.439       .  S
C402        C403   1.401       .  A
C403        C404   1.399       .  A
C403        H411   1.083       .  S
C404        H412   1.083       .  S
C405        C406   1.205       .  T
C407        C408   1.205   1_455  T
C413        C421   1.439       .  S
C413        C414   1.401       .  A
C413        C418   1.402       .  A
C414        C415   1.398       .  A
C414        H423   1.083       .  S
C415        C416   1.401       .  A
C415        H424   1.083       .  S
C416        C419   1.439       .  S
C416        C417   1.401       .  A
C417        C418   1.399       .  A
C417        H425   1.083       .  S
C418        H426   1.083       .  S
C419        C420   1.206       .  T
C421        C422   1.206       .  T
C427        C435   1.440       .  S
C427        C428   1.401       .  A
C427        C432   1.401       .  A
C428        C429   1.400       .  A
C428        H437   1.083       .  S
C429        C430   1.402       .  A
C429        H438   1.083       .  S
C430        C433   1.440       .  S
C430        C431   1.401       .  A
C431        C432   1.398       .  A
C431        H439   1.083       .  S
C432        H440   1.084       .  S
C433        C434   1.206       .  T
C435        C436   1.206       .  T
C441        C449   1.439       .  S
C441        C442   1.401       .  A
C441        C446   1.402       .  A
C442        C443   1.398       .  A
C442        H451   1.083       .  S
C443        C444   1.401       .  A
C443        H452   1.083       .  S
C444        C447   1.439       .  S
C444        C445   1.401       .  A
C445        C446   1.399       .  A
C445        H453   1.083       .  S
C446        H454   1.083       .  S
C447        C448   1.205       .  T
C449        C450   1.205       .  T
C455        C463   1.439       .  S
C455        C456   1.402       .  A
C455        C460   1.401       .  A
C456        C457   1.400       .  A
C456        H465   1.083       .  S
C457        C458   1.401       .  A
C457        H466   1.083       .  S
C458        C461   1.439       .  S
C458        C459   1.401       .  A
C459        C460   1.398       .  A
C459        H467   1.084       .  S
C460        H468   1.083       .  S
C461        C462   1.206       .  T
C463        C464   1.205       .  T
C469        C477   1.439       .  S
C469        C470   1.401       .  A
C469        C474   1.401       .  A
C470        C471   1.398       .  A
C470        H479   1.084       .  S
C471        C472   1.401       .  A
C471        H480   1.083       .  S
C472        C475   1.439       .  S
C472        C473   1.402       .  A
C473        C474   1.399       .  A
C473        H481   1.083       .  S
C474        H482   1.083       .  S
C475        C476   1.206       .  T
C477        C478   1.205       .  T
C483        C491   1.439       .  S
C483        C484   1.401       .  A
C483        C488   1.402       .  A
C484        C485   1.399       .  A
C484        H493   1.083       .  S
C485        C486   1.401       .  A
C485        H494   1.083       .  S
C486        C489   1.439       .  S
C486        C487   1.401       .  A
C487        C488   1.399       .  A
C487        H495   1.083       .  S
C488        H496   1.083       .  S
C489        C490   1.205       .  T
C491        C492   1.205       .  T
