geometry optimzed in LAMMPS
_audit_creation_date              2020-11-30 
_audit_creation_method            'lammps2cif' 
_symmetry_space_group_name_H-M    'P1' 
_symmetry_Int_Tables_number       1 
_symmetry_cell_setting            triclinic 
loop_ 
_symmetry_equiv_pos_as_xyz 
  x,y,z 
_cell_length_a                    35.80049638184676 
_cell_length_b                    35.82558311601924 
_cell_length_c                    31.419795504866038 
_cell_angle_alpha                 89.15754766294128 
_cell_angle_beta                  89.0061931010856 
_cell_angle_gamma                 92.34404926571493 
loop_ 
_atom_site_label 
_atom_site_type_symbol 
_atom_site_fract_x 
_atom_site_fract_y 
_atom_site_fract_z 
_atom_site_charge 
O1          O  0.08719607  0.45585164  0.02457305    -0.79850
O2          O  0.45187896  0.00526931  0.06131895    -0.79880
O3          O  0.00360407  0.05812184  0.06251917    -0.79880
O4          O  0.47474831  0.41582520  0.01928474    -0.79830
O5          O  0.45074826  0.07846001  0.03645777    -0.79950
O6          O  0.01586125  0.44766414  0.05638995    -0.79870
O7          O  0.42039357  0.46537428  0.02298631    -0.79850
O8          O  0.06419069  0.00434960  0.05798564    -0.79890
C9          C  0.09088553  0.98145811  0.05188554     1.09840
C10         C  0.42486444  0.98190657  0.05807481     1.09720
C11         C  0.97850948  0.08317348  0.06082819     1.09860
C12         C  0.99353854  0.41970614  0.05286102     1.09740
O13         O  0.03374114  0.41778387  0.47390716    -0.79850
O14         O  0.47380972  0.06289765  0.45543249    -0.79930
O15         O  0.07999166  0.03398597  0.47311795    -0.79870
O16         O  0.43560278  0.48725335  0.43513543    -0.79850
O17         O  0.41561615  0.02608987  0.48242305    -0.79900
O18         O  0.06402385  0.48086157  0.44756522    -0.79860
O19         O  0.49112921  0.43754762  0.43134508    -0.79820
O20         O  0.02699069  0.08251239  0.47790184    -0.79890
Co21       Co  0.03999976  0.46742226  0.00270438     1.51530
Co22       Co  0.46590785  0.03453452  0.00899928     1.51690
Co23       Co  0.03835628  0.03910288  0.01520922     1.51570
Co24       Co  0.45832592  0.45451446  0.47743673     1.51470
O25         O  0.99787455  0.49668810  0.98799764    -1.41790
C26         C  0.51546851  0.41418919  0.43986722     1.09760
C27         C  0.50077258  0.08580260  0.45236870     1.09850
C28         C  0.08435669  0.50990616  0.44517142     1.09790
C29         C  0.41178946  0.01027437  0.44675971     1.09770
C30         C  0.98592998  0.28685988  0.15891245     0.03410
C31         C  0.98405726  0.25371369  0.13583101    -0.12740
C32         C  0.98846691  0.21940377  0.15653137     0.00910
C33         C  0.99644401  0.21833449  0.19998172    -0.11260
C34         C  0.99704734  0.25107843  0.22453461     0.03410
C35         C  0.99134928  0.28539077  0.20299701    -0.10680
H36         H  0.97948051  0.25466235  0.10181389     0.09000
H37         H  0.00191695  0.19142615  0.21379984     0.06530
H38         H  0.99100685  0.31150649  0.21951836     0.06380
C39         C  0.00802433  0.21354074  0.33874972     0.03410
C40         C  0.01531064  0.24649480  0.36076502    -0.12740
C41         C  0.01613045  0.28078864  0.33930149     0.00910
C42         C  0.01205697  0.28206312  0.29502556    -0.11260
C43         C  0.00360853  0.24931294  0.27189391     0.03410
C44         C  0.00081578  0.21498848  0.29504529    -0.10680
H45         H  0.01883918  0.24550526  0.39498550     0.09000
H46         H  0.01487515  0.30916149  0.27974923     0.06530
H47         H  0.99304270  0.18899760  0.28008606     0.06380
C48         C  0.22409030  0.99878818  0.15423267     0.03410
C49         C  0.22352593  0.01248636  0.19596711    -0.12740
C50         C  0.25490828  0.01016127  0.22231542     0.00910
C51         C  0.28843429  0.99760496  0.20419351    -0.11260
C52         C  0.29097084  0.98819964  0.16105784     0.03410
C53         C  0.25848837  0.98834876  0.13668971    -0.10680
H54         H  0.19813406  0.02409967  0.20800813     0.09000
H55         H  0.31276042  0.99422825  0.22350906     0.06530
H56         H  0.26011688  0.97990857  0.10388066     0.06380
C57         C  0.21556640  0.01553972  0.33574881     0.03410
C58         C  0.24851391  0.01935542  0.35871076    -0.12740
C59         C  0.28334779  0.02393786  0.33786564     0.00910
C60         C  0.28437464  0.02581515  0.29306414    -0.11260
C61         C  0.25201898  0.01758083  0.26920095     0.03410
C62         C  0.21737441  0.01328052  0.29131199    -0.10680
H63         H  0.24669356  0.01791141  0.39316575     0.09000
H64         H  0.31081806  0.03231146  0.27701847     0.06530
H65         H  0.19166877  0.00736999  0.27473360     0.06380
C66         C  0.03652352  0.13508721  0.41107549    -0.11980
C67         C  0.00187481  0.11673733  0.42045698     0.05020
C68         C  0.46951207  0.12886080  0.39976663    -0.07270
C69         C  0.47281208  0.15880047  0.37046149    -0.08010
C70         C  0.00729006  0.17770735  0.36247322    -0.02570
C71         C  0.03970618  0.16534118  0.38234075     0.04250
N72         N  0.07583222  0.18340388  0.37403456     0.66760
H73         H  0.06143933  0.12582235  0.42635978     0.15550
H74         H  0.44785933  0.16907231  0.35602010     0.15370
N75         N  0.43286214  0.11332913  0.41032094     0.74460
O76         O  0.10033551  0.18405332  0.40246044    -0.38990
O77         O  0.08442244  0.19632111  0.33739745    -0.38930
O78         O  0.42095718  0.11378006  0.44836371    -0.39640
O79         O  0.40997456  0.10640127  0.38107161    -0.39700
C80         C  0.04796273  0.32473054  0.38882915    -0.11980
C81         C  0.01691275  0.31553319  0.36385780     0.05020
C82         C  0.48646945  0.33929273  0.36295436    -0.07270
C83         C  0.48831437  0.37219335  0.38618929    -0.08010
C84         C  0.01900341  0.38150065  0.41190350    -0.02570
C85         C  0.04958835  0.35760510  0.41276275     0.04250
N86         N  0.08257462  0.36636568  0.43669904     0.66760
H87         H  0.07131648  0.30641192  0.38911168     0.15660
H88         H  0.46427213  0.38960596  0.38601572     0.15370
N89         N  0.45265500  0.32951292  0.34075078     0.74460
O90         O  0.10007273  0.34047642  0.45404718    -0.38990
O91         O  0.09757673  0.39885410  0.43484415    -0.38930
O92         O  0.43919769  0.29637344  0.34213263    -0.39640
O93         O  0.43339614  0.35480903  0.32489718    -0.39700
C94         C  0.44917595  0.13039890  0.10652879    -0.11980
C95         C  0.98155750  0.11661715  0.08771584     0.05020
C96         C  0.01581493  0.13732140  0.09093586    -0.07270
C97         C  0.01706110  0.17087378  0.11324895    -0.08010
C98         C  0.98494327  0.18413399  0.13297590    -0.02570
C99         C  0.45037439  0.16364629  0.12990395     0.04250
N100        N  0.41635517  0.17612134  0.14944395     0.66760
H101        H  0.42282132  0.11489136  0.10320992     0.15660
H102        H  0.04335516  0.18679373  0.11518981     0.15370
N103        N  0.04897488  0.12618484  0.06918983     0.74460
O104        O  0.38497705  0.16498074  0.13564912    -0.38990
O105        O  0.41714675  0.19578215  0.18244702    -0.38930
O106        O  0.06476727  0.14786285  0.04175414    -0.39640
O107        O  0.06597236  0.09827883  0.08255884    -0.39700
C108        C  0.45626056  0.37241011  0.09606910    -0.11980
C109        C  0.99136857  0.38918239  0.08525619     0.05020
C110        C  0.02379831  0.37362506  0.10166737    -0.07270
C111        C  0.02057529  0.34134467  0.12732050    -0.08010
C112        C  0.98574576  0.32337683  0.13623833    -0.02570
C113        C  0.45273290  0.33962787  0.12152973     0.04250
N114        N  0.41577861  0.32390094  0.13182362     0.66760
H115        H  0.43143149  0.38450617  0.08341641     0.15660
H116        H  0.04580389  0.32880504  0.13831493     0.15370
N117        N  0.06034225  0.38743713  0.08866628     0.74460
O118        O  0.38744210  0.34320603  0.12649765    -0.38990
O119        O  0.41086542  0.29091829  0.14606419    -0.38930
O120        O  0.08455521  0.39447465  0.11646694    -0.39640
O121        O  0.07084553  0.38355082  0.05050687    -0.39700
C122        C  0.38062683  0.00274727  0.37732022    -0.11980
C123        C  0.37978985  0.01740254  0.41859872     0.05020
C124        C  0.34809007  0.53679590  0.43183221    -0.07270
C125        C  0.31866722  0.54128623  0.40346734    -0.08010
C126        C  0.31826490  0.02408750  0.36338327    -0.02570
C127        C  0.35002016  0.00452196  0.35039768     0.04250
N128        N  0.35078808  0.98361332  0.31179860     0.66760
H129        H  0.40449128  0.98754499  0.36656667     0.15660
H130        H  0.29487773  0.55668134  0.41398783     0.15370
N131        N  0.34377116  0.54966153  0.47460986     0.74460
O132        O  0.37924805  0.98615942  0.28746678    -0.38990
O133        O  0.32608321  0.45823294  0.30560448    -0.38930
O134        O  0.33214381  0.08193809  0.98102560    -0.39640
O135        O  0.34351272  0.52642811  0.00524468    -0.39700
C136        C  0.12170454  0.48389886  0.38561688    -0.11980
C137        C  0.11503732  0.51403424  0.41270395     0.05020
C138        C  0.13989384  0.04582833  0.41050234    -0.07270
C139        C  0.17144453  0.04567465  0.38374176    -0.08010
C140        C  0.17944355  0.01453687  0.35927522    -0.02570
C141        C  0.15396314  0.48335810  0.35947443     0.04250
N142        N  0.16109646  0.45038114  0.33543568     0.66760
H143        H  0.10270070  0.45963789  0.38641710     0.15660
H144        H  0.19068914  0.06983999  0.38304417     0.15370
N145        N  0.13414924  0.07851544  0.43515734     0.74460
O146        O  0.13415788  0.43027581  0.32196597    -0.38990
O147        O  0.19384306  0.43888350  0.33167682    -0.38930
O148        O  0.14056664  0.07792017  0.97452704    -0.39640
O149        O  0.13266519  0.10970562  0.41623231    -0.39700
C150        C  0.35948752  0.00282668  0.15067390    -0.11980
C151        C  0.32789769  0.98011534  0.14081775     0.05020
C152        C  0.33166844  0.45268805  0.10915087    -0.07270
C153        C  0.36477239  0.45235176  0.08461940    -0.08010
C154        C  0.39519428  0.97737140  0.09193654    -0.02570
C155        C  0.39343386  0.00085566  0.12776521     0.04250
N156        N  0.42544519  0.52276787  0.14142008     0.66760
H157        H  0.35757041  0.02303060  0.17584388     0.15660
H158        H  0.36640273  0.43266235  0.05887413     0.15370
N159        N  0.30238940  0.92501524  0.10145618     0.74460
O160        O  0.42117183  0.05434251  0.15772648    -0.38990
O161        O  0.45643161  0.50759413  0.14542077    -0.38930
O162        O  0.29743747  0.91275393  0.06441116    -0.39640
O163        O  0.28364874  0.41028782  0.13217142    -0.39700
C164        C  0.12199520  0.98006132  0.12192210    -0.11980
C165        C  0.12494750  0.98432194  0.07760445     0.05020
C166        C  0.16026238  0.49356069  0.05853306    -0.07270
C167        C  0.19110061  0.50056400  0.08454589    -0.08010
C168        C  0.18898686  0.99453884  0.12891464    -0.02570
C169        C  0.15379410  0.98297309  0.14755901     0.04250
N170        N  0.15005407  0.47177718  0.19157476     0.66760
H171        H  0.09503573  0.97235063  0.13639926     0.15660
H172        H  0.21727458  0.50994322  0.06948931     0.15370
N173        N  0.16555941  0.99601362  0.01303711     0.74460
O174        O  0.12176272  0.98063091  0.21315931    -0.38990
O175        O  0.17180753  0.44845650  0.20701911    -0.38930
O176        O  0.18896718  0.01977749  0.49704803    -0.39640
O177        O  0.15389695  0.46952708  0.49011190    -0.39700
O178        O  0.08719610  0.45585167  0.52457305    -0.79850
O179        O  0.45187896  0.00526931  0.56131894    -0.79880
O180        O  0.00360405  0.05812184  0.56251918    -0.79880
O181        O  0.47474829  0.41582522  0.51928478    -0.79830
O182        O  0.45074825  0.07846001  0.53645776    -0.79950
O183        O  0.01586128  0.44766415  0.55638996    -0.79870
O184        O  0.42039356  0.46537431  0.52298635    -0.79850
O185        O  0.06419067  0.00434961  0.55798565    -0.79890
C186        C  0.09088551  0.98145812  0.55188555     1.09840
C187        C  0.42486444  0.98190657  0.55807480     1.09720
C188        C  0.97850945  0.08317348  0.56082820     1.09860
C189        C  0.99353857  0.41970615  0.55286103     1.09740
O190        O  0.03374111  0.41778386  0.97390715    -0.79850
O191        O  0.47380972  0.06289764  0.95543249    -0.79930
O192        O  0.07999168  0.03398596  0.97311793    -0.79870
O193        O  0.43560280  0.48725336  0.93513540    -0.79850
O194        O  0.41561615  0.02608987  0.98242306    -0.79900
O195        O  0.06402385  0.48086157  0.94756523    -0.79860
O196        O  0.49112924  0.43754764  0.93134505    -0.79820
O197        O  0.02699072  0.08251239  0.97790183    -0.79890
Co198      Co  0.03999979  0.46742228  0.50270438     1.51530
Co199      Co  0.46590785  0.03453452  0.50899928     1.51690
Co200      Co  0.03835626  0.03910288  0.51520923     1.51570
Co201      Co  0.45832595  0.45451446  0.97743670     1.51470
O202        O  0.99787457  0.49668811  0.48799765    -1.41790
C203        C  0.51546854  0.41418919  0.93986720     1.09760
C204        C  0.50077258  0.08580259  0.95236871     1.09850
C205        C  0.08435668  0.50990615  0.94517144     1.09790
C206        C  0.41178946  0.01027436  0.94675972     1.09770
C207        C  0.98592997  0.28685988  0.65891245     0.03410
C208        C  0.98405724  0.25371370  0.63583101    -0.12740
C209        C  0.98846688  0.21940377  0.65653137     0.00910
C210        C  0.99644399  0.21833449  0.69998172    -0.11260
C211        C  0.99704734  0.25107844  0.72453460     0.03410
C212        C  0.99134928  0.28539077  0.70299701    -0.10680
H213        H  0.97948049  0.25466236  0.60181388     0.09000
H214        H  0.00191692  0.19142615  0.71379983     0.06530
H215        H  0.99100687  0.31150649  0.71951835     0.06380
C216        C  0.00802435  0.21354073  0.83874971     0.03410
C217        C  0.01531066  0.24649480  0.86076502    -0.12740
C218        C  0.01613046  0.28078864  0.83930148     0.00910
C219        C  0.01205698  0.28206312  0.79502555    -0.11260
C220        C  0.00360854  0.24931294  0.77189391     0.03410
C221        C  0.00081579  0.21498848  0.79504528    -0.10680
H222        H  0.01883920  0.24550526  0.89498549     0.09000
H223        H  0.01487515  0.30916149  0.77974923     0.06530
H224        H  0.99304272  0.18899759  0.78008606     0.06380
C225        C  0.22409030  0.99878819  0.65423266     0.03410
C226        C  0.22352594  0.01248638  0.69596710    -0.12740
C227        C  0.25490829  0.01016127  0.72231541     0.00910
C228        C  0.28843429  0.99760496  0.70419350    -0.11260
C229        C  0.29097084  0.98819964  0.66105783     0.03410
C230        C  0.25848837  0.98834877  0.63668970    -0.10680
H231        H  0.19813407  0.02409969  0.70800812     0.09000
H232        H  0.31276042  0.99422824  0.72350905     0.06530
H233        H  0.26011688  0.97990858  0.60388065     0.06380
C234        C  0.21556640  0.01553969  0.83574879     0.03410
C235        C  0.24851392  0.01935539  0.85871075    -0.12740
C236        C  0.28334779  0.02393784  0.83786563     0.00910
C237        C  0.28437464  0.02581514  0.79306413    -0.11260
C238        C  0.25201899  0.01758082  0.76920093     0.03410
C239        C  0.21737441  0.01328049  0.79131197    -0.10680
H240        H  0.24669356  0.01791137  0.89316573     0.09000
H241        H  0.31081806  0.03231146  0.77701846     0.06530
H242        H  0.19166878  0.00736997  0.77473358     0.06380
C243        C  0.03652353  0.13508723  0.91107552    -0.11980
C244        C  0.00187483  0.11673733  0.92045697     0.05020
C245        C  0.46951207  0.12886078  0.89976663    -0.07270
C246        C  0.47281208  0.15880046  0.87046149    -0.08010
C247        C  0.00729008  0.17770735  0.86247322    -0.02570
C248        C  0.03970620  0.16534120  0.88234077     0.04250
N249        N  0.07583223  0.18340392  0.87403462     0.66760
H250        H  0.06143934  0.12582239  0.92635984     0.15550
H251        H  0.44785933  0.16907229  0.85602010     0.15370
N252        N  0.43286214  0.11332912  0.91032093     0.74460
O253        O  0.10033549  0.18405339  0.90246053    -0.38990
O254        O  0.08442248  0.19632115  0.83739752    -0.38930
O255        O  0.42095717  0.11378004  0.94836370    -0.39640
O256        O  0.40997457  0.10640126  0.88107160    -0.39700
C257        C  0.04796273  0.32473056  0.88882912    -0.11980
C258        C  0.01691274  0.31553319  0.86385779     0.05020
C259        C  0.48646946  0.33929273  0.86295435    -0.07270
C260        C  0.48831439  0.37219336  0.88618927    -0.08010
C261        C  0.01900339  0.38150065  0.91190349    -0.02570
C262        C  0.04958835  0.35760512  0.91276272     0.04250
N263        N  0.08257463  0.36636572  0.93669898     0.66760
H264        H  0.07131650  0.30641195  0.88911164     0.15660
H265        H  0.46427215  0.38960597  0.88601570     0.15370
N266        N  0.45265501  0.32951292  0.84075078     0.74460
O267        O  0.10007278  0.34047647  0.95404710    -0.38990
O268        O  0.09757671  0.39885416  0.93484409    -0.38930
O269        O  0.43919769  0.29637345  0.84213264    -0.39640
O270        O  0.43339616  0.35480903  0.82489717    -0.39700
C271        C  0.44917595  0.13039889  0.60652882    -0.11980
C272        C  0.98155747  0.11661715  0.58771584     0.05020
C273        C  0.01581490  0.13732142  0.59093583    -0.07270
C274        C  0.01706107  0.17087380  0.61324892    -0.08010
C275        C  0.98494324  0.18413400  0.63297589    -0.02570
C276        C  0.45037438  0.16364628  0.62990397     0.04250
N277        N  0.41635517  0.17612131  0.64944400     0.66760
H278        H  0.42282132  0.11489133  0.60320996     0.15660
H279        H  0.04335512  0.18679376  0.61518975     0.15370
N280        N  0.04897484  0.12618488  0.56918977     0.74460
O281        O  0.38497705  0.16498068  0.63564921    -0.38990
O282        O  0.41714676  0.19578214  0.68244705    -0.38930
O283        O  0.06476722  0.14786290  0.54175408    -0.39640
O284        O  0.06597233  0.09827887  0.58255876    -0.39700
C285        C  0.45626056  0.37241016  0.59606918    -0.11980
C286        C  0.99136859  0.38918240  0.58525621     0.05020
C287        C  0.02379832  0.37362507  0.60166740    -0.07270
C288        C  0.02057530  0.34134468  0.62732052    -0.08010
C289        C  0.98574577  0.32337684  0.63623833    -0.02570
C290        C  0.45273291  0.33962791  0.62152980     0.04250
N291        N  0.41577861  0.32390100  0.63182374     0.66760
H292        H  0.43143148  0.38450623  0.58341652     0.15660
H293        H  0.04580389  0.32880505  0.63831496     0.15370
N294        N  0.06034227  0.38743714  0.58866633     0.74460
O295        O  0.38744212  0.34320614  0.62649789    -0.38990
O296        O  0.41086542  0.29091832  0.64606423    -0.38930
O297        O  0.08455523  0.39447463  0.61646700    -0.39640
O298        O  0.07084556  0.38355086  0.55050691    -0.39700
C299        C  0.38062685  0.00274729  0.87732022    -0.11980
C300        C  0.37978985  0.01740254  0.91859872     0.05020
C301        C  0.34809011  0.53679594  0.93183220    -0.07270
C302        C  0.31866725  0.54128627  0.90346734    -0.08010
C303        C  0.31826490  0.02408749  0.86338326    -0.02570
C304        C  0.35002018  0.00452198  0.85039767     0.04250
N305        N  0.35078812  0.98361336  0.81179858     0.66760
H306        H  0.40449131  0.98754503  0.86656665     0.15660
H307        H  0.29487777  0.55668141  0.91398783     0.15370
N308        N  0.34377122  0.54966161  0.97460983     0.74460
O309        O  0.37924809  0.98615950  0.78746675    -0.38990
O310        O  0.32608315  0.45823295  0.80560450    -0.38930
O311        O  0.33214390  0.08193820  0.48102553    -0.39640
O312        O  0.34351270  0.52642801  0.50524469    -0.39700
C313        C  0.12170452  0.48389891  0.88561685    -0.11980
C314        C  0.11503732  0.51403426  0.91270399     0.05020
C315        C  0.13989382  0.04582832  0.91050227    -0.07270
C316        C  0.17144451  0.04567464  0.88374170    -0.08010
C317        C  0.17944355  0.01453684  0.85927520    -0.02570
C318        C  0.15396311  0.48335816  0.85947439     0.04250
N319        N  0.16109640  0.45038125  0.83543556     0.66760
H320        H  0.10270065  0.45963796  0.88641702     0.15660
H321        H  0.19068911  0.06983999  0.88304407     0.15370
N322        N  0.13414919  0.07851546  0.93515721     0.74460
O323        O  0.13415780  0.43027598  0.82196579    -0.38990
O324        O  0.19384298  0.43888355  0.83167672    -0.38930
O325        O  0.14056668  0.07792009  0.47452717    -0.39640
O326        O  0.13266513  0.10970562  0.91623212    -0.39700
C327        C  0.35948752  0.00282667  0.65067389    -0.11980
C328        C  0.32789769  0.98011533  0.64081773     0.05020
C329        C  0.33166849  0.45268802  0.60915101    -0.07270
C330        C  0.36477244  0.45235174  0.58461952    -0.08010
C331        C  0.39519427  0.97737140  0.59193652    -0.02570
C332        C  0.39343387  0.00085565  0.62776520     0.04250
N333        N  0.42544515  0.52276806  0.64142001     0.66760
H334        H  0.35757041  0.02303058  0.67584388     0.15660
H335        H  0.36640281  0.43266228  0.55887430     0.15370
N336        N  0.30238939  0.92501525  0.60145614     0.74460
O337        O  0.42117184  0.05434247  0.65772651    -0.38990
O338        O  0.45643160  0.50759438  0.64542075    -0.38930
O339        O  0.29743746  0.91275396  0.56441111    -0.39640
O340        O  0.28364884  0.41028781  0.63217170    -0.39700
C341        C  0.12199519  0.98006136  0.62192211    -0.11980
C342        C  0.12494749  0.98432195  0.57760446     0.05020
C343        C  0.16026240  0.49356075  0.55853308    -0.07270
C344        C  0.19110064  0.50056402  0.58454592    -0.08010
C345        C  0.18898685  0.99453885  0.62891464    -0.02570
C346        C  0.15379409  0.98297314  0.64755902     0.04250
N347        N  0.15005410  0.47177710  0.69157476     0.66760
H348        H  0.09503571  0.97235070  0.63639927     0.15660
H349        H  0.21727460  0.50994325  0.56948935     0.15370
N350        N  0.16555940  0.99601354  0.51303710     0.74460
O351        O  0.12176272  0.98063102  0.71315932    -0.38990
O352        O  0.17180758  0.44845645  0.70701910    -0.38930
O353        O  0.18896716  0.01977761  0.99704807    -0.39640
O354        O  0.15389691  0.46952691  0.99011193    -0.39700
O355        O  0.08718279  0.95585403  0.02457248    -0.79850
O356        O  0.45189417  0.50526947  0.06131782    -0.79880
O357        O  0.00361971  0.55812315  0.06251705    -0.79880
O358        O  0.47473533  0.91582494  0.01928562    -0.79830
O359        O  0.45076311  0.57845963  0.03645558    -0.79950
O360        O  0.01584838  0.94766437  0.05639022    -0.79870
O361        O  0.42037944  0.96537348  0.02298720    -0.79850
O362        O  0.06420545  0.50434934  0.05798388    -0.79890
C363        C  0.09089961  0.48145677  0.05188481     1.09840
C364        C  0.42487932  0.48190703  0.05807405     1.09720
C365        C  0.97852395  0.58317373  0.06082630     1.09860
C366        C  0.99352651  0.91970572  0.05286127     1.09740
O367        O  0.03372844  0.91778566  0.47390735    -0.79850
O368        O  0.47382427  0.56289679  0.45543077    -0.79930
O369        O  0.08000605  0.53398434  0.47311523    -0.79870
O370        O  0.43558834  0.98725297  0.43513673    -0.79850
O371        O  0.41563077  0.52608995  0.48242202    -0.79900
O372        O  0.06400890  0.98086449  0.44756535    -0.79860
O373        O  0.49111522  0.93754733  0.43134566    -0.79820
O374        O  0.02700564  0.58251186  0.47789868    -0.79890
Co375      Co  0.03998592  0.96742383  0.00270467     1.51530
Co376      Co  0.46592278  0.53453420  0.00899780     1.51690
Co377      Co  0.03837117  0.53910255  0.01520687     1.51570
Co378      Co  0.45831205  0.95451413  0.47743776     1.51470
O379        O  0.99785994  0.99668857  0.98799891    -1.41790
C380        C  0.51545599  0.91419029  0.43986747     1.09760
C381        C  0.50078681  0.58580204  0.45236640     1.09850
C382        C  0.08434205  0.00990890  0.44517284     1.09790
C383        C  0.41180393  0.51027463  0.44675861     1.09770
C384        C  0.98592762  0.78685893  0.15891248     0.03410
C385        C  0.98405815  0.75371275  0.13583092    -0.12740
C386        C  0.98847170  0.71940343  0.15653102     0.00910
C387        C  0.99644906  0.71833483  0.19998130    -0.11260
C388        C  0.99704902  0.75107861  0.22453438     0.03410
C389        C  0.99134732  0.78539029  0.20299700    -0.10680
H390        H  0.97948111  0.75466100  0.10181384     0.09000
H391        H  0.00192479  0.69142712  0.21379923     0.06530
H392        H  0.99100246  0.81150585  0.21951846     0.06380
C393        C  0.00803007  0.71354172  0.33874922     0.03410
C394        C  0.01531302  0.74649632  0.36076475    -0.12740
C395        C  0.01612915  0.78079023  0.33930142     0.00910
C396        C  0.01205565  0.78206441  0.29502549    -0.11260
C397        C  0.00361054  0.74931360  0.27189365     0.03410
C398        C  0.00082131  0.71498893  0.29504481    -0.10680
H399        H  0.01884162  0.74550699  0.39498522     0.09000
H400        H  0.01487114  0.80916299  0.27974928     0.06530
H401        H  0.99305067  0.68899745  0.28008545     0.06380
C402        C  0.22410520  0.49878590  0.15423143     0.03410
C403        C  0.22354065  0.51248492  0.19596556    -0.12740
C404        C  0.25492300  0.51016073  0.22231401     0.00910
C405        C  0.28844931  0.49760502  0.20419243    -0.11260
C406        C  0.29098602  0.48819874  0.16105711     0.03410
C407        C  0.25850347  0.48834635  0.13668891    -0.10680
H408        H  0.19814866  0.52409811  0.20800638     0.09000
H409        H  0.31277559  0.49422944  0.22350804     0.06530
H410        H  0.26013215  0.47990502  0.10388024     0.06380
C411        C  0.21558088  0.51553634  0.33574728     0.03410
C412        C  0.24852830  0.51935233  0.35870933    -0.12740
C413        C  0.28336214  0.52393687  0.33786437     0.00910
C414        C  0.28438873  0.52581546  0.29306284    -0.11260
C415        C  0.25203336  0.51758007  0.26919952     0.03410
C416        C  0.21738891  0.51327807  0.29131045    -0.10680
H417        H  0.24670772  0.51790721  0.39316424     0.09000
H418        H  0.31083166  0.53231376  0.27701700     0.06530
H419        H  0.19168343  0.50736704  0.27473192     0.06380
C420        C  0.03653501  0.63508894  0.41107324    -0.11980
C421        C  0.00188731  0.61673726  0.42045524     0.05020
C422        C  0.46952348  0.62885957  0.39976610    -0.07270
C423        C  0.47282146  0.65879970  0.37046151    -0.08010
C424        C  0.00729842  0.67770830  0.36247256    -0.02570
C425        C  0.03971568  0.66534347  0.38233896     0.04250
N426        N  0.07584086  0.68340784  0.37403194     0.66760
H427        H  0.06145153  0.62582505  0.42635681     0.15550
H428        H  0.44786784  0.66907048  0.35602104     0.15370
N429        N  0.43287436  0.61332622  0.41032113     0.74460
O430        O  0.10034587  0.68405542  0.40245591    -0.38990
O431        O  0.08442891  0.69632780  0.33739544    -0.38930
O432        O  0.42096969  0.61377727  0.44836401    -0.39640
O433        O  0.40998675  0.60639700  0.38107222    -0.39700
C434        C  0.04795723  0.82473434  0.38882981    -0.11980
C435        C  0.01690830  0.81553476  0.36385782     0.05020
C436        C  0.48646335  0.83929226  0.36295349    -0.07270
C437        C  0.48830557  0.87219303  0.38618839    -0.08010
C438        C  0.01899348  0.88150236  0.41190336    -0.02570
C439        C  0.04958014  0.85760897  0.41276329     0.04250
N440        N  0.08256548  0.86637181  0.43670024     0.66760
H441        H  0.07131235  0.80641743  0.38911293     0.15660
H442        H  0.46426214  0.88960404  0.38601425     0.15370
N443        N  0.45264996  0.82951013  0.34074905     0.74460
O444        O  0.10006461  0.84048392  0.45404965    -0.38990
O445        O  0.09756598  0.89886091  0.43484468    -0.38930
O446        O  0.43919486  0.79636983  0.34213062    -0.39640
O447        O  0.43338971  0.85480482  0.32489478    -0.39700
C448        C  0.44918681  0.63039756  0.10652576    -0.11980
C449        C  0.98156981  0.61661691  0.08771493     0.05020
C450        C  0.01582640  0.63732217  0.09093739    -0.07270
C451        C  0.01707030  0.67087442  0.11325082    -0.08010
C452        C  0.98495091  0.68413351  0.13297554    -0.02570
C453        C  0.45038292  0.66364473  0.12990121     0.04250
N454        N  0.41636236  0.67611845  0.14943932     0.66760
H455        H  0.42283279  0.61488939  0.10320486     0.15660
H456        H  0.04336369  0.68679526  0.11519343     0.15370
N457        N  0.04898769  0.62618699  0.06919308     0.74460
O458        O  0.38498526  0.66497733  0.13564213    -0.38990
O459        O  0.41715174  0.69577820  0.18244325    -0.38930
O460        O  0.06477988  0.64786522  0.04175746    -0.39640
O461        O  0.06598591  0.59828181  0.08256309    -0.39700
C462        C  0.45625190  0.87240708  0.09606962    -0.11980
C463        C  0.99135888  0.88918117  0.08525564     0.05020
C464        C  0.02378996  0.87362524  0.10166538    -0.07270
C465        C  0.02056910  0.84134514  0.12731912    -0.08010
C466        C  0.98574066  0.82337568  0.13623827    -0.02570
C467        C  0.45272653  0.83962461  0.12153019     0.04250
N468        N  0.41577325  0.82389516  0.13182426     0.66760
H469        H  0.43142185  0.88450185  0.08341775     0.15660
H470        H  0.04579863  0.82880672  0.13831264     0.15370
N471        N  0.06033307  0.88743783  0.08866162     0.74460
O472        O  0.38743515  0.84319768  0.12649689    -0.38990
O473        O  0.41086252  0.79091263  0.14606603    -0.38930
O474        O  0.08454875  0.89447206  0.11646023    -0.39640
O475        O  0.07083308  0.88355388  0.05050070    -0.39700
C476        C  0.38064342  0.50275194  0.37731739    -0.11980
C477        C  0.37980434  0.51740299  0.41859779     0.05020
C478        C  0.34807761  0.03679963  0.43183112    -0.07270
C479        C  0.31865461  0.04128954  0.40346635    -0.08010
C480        C  0.31827940  0.52408768  0.36338215    -0.02570
C481        C  0.35003688  0.50452634  0.35039463     0.04250
N482        N  0.35080745  0.48362131  0.31179312     0.66760
H483        H  0.40450960  0.48755298  0.36656229     0.15660
H484        H  0.29486649  0.05668747  0.41398525     0.15370
N485        N  0.34376098  0.04967079  0.47460672     0.74460
O486        O  0.37926690  0.48617379  0.28746087    -0.38990
O487        O  0.32606012  0.95822808  0.30561208    -0.38930
O488        O  0.33214901  0.58192624  0.98103351    -0.39640
O489        O  0.34349868  0.02644036  0.00524487    -0.39700
C490        C  0.12168891  0.98390352  0.38561648    -0.11980
C491        C  0.11502275  0.01403776  0.41270557     0.05020
C492        C  0.13990731  0.54582555  0.41049868    -0.07270
C493        C  0.17145798  0.54567174  0.38373817    -0.08010
C494        C  0.17945804  0.51453310  0.35927359    -0.02570
C495        C  0.15394750  0.98336283  0.35947410     0.04250
N496        N  0.16107977  0.95038667  0.33543357     0.66760
H497        H  0.10268420  0.95964319  0.38641502     0.15660
H498        H  0.19070178  0.56983772  0.38303912     0.15370
N499        N  0.13416166  0.57851351  0.43515178     0.74460
O500        O  0.13414060  0.93028380  0.32196100    -0.38990
O501        O  0.19382566  0.93888686  0.33167634    -0.38930
O502        O  0.14058095  0.57792040  0.97452146    -0.39640
O503        O  0.13267473  0.60970254  0.41622485    -0.39700
C504        C  0.35950214  0.50282803  0.15067237    -0.11980
C505        C  0.32791317  0.48011497  0.14081754     0.05020
C506        C  0.33165186  0.95268993  0.10914909    -0.07270
C507        C  0.36475584  0.95235327  0.08461780    -0.08010
C508        C  0.39520977  0.47737167  0.09193643    -0.02570
C509        C  0.39344860  0.50085730  0.12776388     0.04250
N510        N  0.42543116  0.02276460  0.14142238     0.66760
H511        H  0.35758419  0.52303296  0.17584118     0.15660
H512        H  0.36638531  0.93266501  0.05887129     0.15370
N513        N  0.30240724  0.42501135  0.10146048     0.74460
O514        O  0.42118459  0.55434571  0.15772381    -0.38990
O515        O  0.45641694  0.00758954  0.14542272    -0.38930
O516        O  0.29745697  0.41274584  0.06441700    -0.39640
O517        O  0.28363069  0.91028983  0.13216586    -0.39700
C518        C  0.12200967  0.48006023  0.12192135    -0.11980
C519        C  0.12496174  0.48432048  0.07760365     0.05020
C520        C  0.16024805  0.99356310  0.05853415    -0.07270
C521        C  0.19108583  0.00056724  0.08454731    -0.08010
C522        C  0.18900173  0.49453621  0.12891334    -0.02570
C523        C  0.15380879  0.48297145  0.14755801     0.04250
N524        N  0.15003940  0.97177841  0.19157563     0.66760
H525        H  0.09505012  0.47235033  0.13639878     0.15660
H526        H  0.21725964  0.00994736  0.06949106     0.15370
N527        N  0.16557327  0.49601127  0.01303600     0.74460
O528        O  0.12177767  0.48063035  0.21315850    -0.38990
O529        O  0.17179304  0.94845780  0.20701974    -0.38930
O530        O  0.18898046  0.51977579  0.49704669    -0.39640
O531        O  0.15388334  0.96952910  0.49011298    -0.39700
O532        O  0.08718276  0.95585403  0.52457250    -0.79850
O533        O  0.45189417  0.50526950  0.56131782    -0.79880
O534        O  0.00361973  0.55812316  0.56251704    -0.79880
O535        O  0.47473533  0.91582495  0.51928561    -0.79830
O536        O  0.45076311  0.57845966  0.53645556    -0.79950
O537        O  0.01584835  0.94766438  0.55639022    -0.79870
O538        O  0.42037944  0.96537348  0.52298719    -0.79850
O539        O  0.06420548  0.50434936  0.55798387    -0.79890
C540        C  0.09089963  0.48145680  0.55188481     1.09840
C541        C  0.42487932  0.48190706  0.55807407     1.09720
C542        C  0.97852397  0.58317374  0.56082629     1.09860
C543        C  0.99352649  0.91970573  0.55286127     1.09740
O544        O  0.03372846  0.91778565  0.97390734    -0.79850
O545        O  0.47382427  0.56289680  0.95543079    -0.79930
O546        O  0.08000603  0.53398434  0.97311526    -0.79870
O547        O  0.43558833  0.98725296  0.93513674    -0.79850
O548        O  0.41563078  0.52608994  0.98242202    -0.79900
O549        O  0.06400890  0.98086448  0.94756534    -0.79860
O550        O  0.49111522  0.93754732  0.93134567    -0.79820
O551        O  0.02700563  0.58251185  0.97789869    -0.79890
Co552      Co  0.03998590  0.96742384  0.50270468     1.51530
Co553      Co  0.46592278  0.53453421  0.50899779     1.51690
Co554      Co  0.03837119  0.53910257  0.51520686     1.51570
Co555      Co  0.45831205  0.95451412  0.97743777     1.51470
O556        O  0.99785992  0.99668858  0.48799891    -1.41790
C557        C  0.51545599  0.91419028  0.93986748     1.09760
C558        C  0.50078681  0.58580204  0.95236642     1.09850
C559        C  0.08434205  0.00990889  0.94517282     1.09790
C560        C  0.41180395  0.51027463  0.94675860     1.09770
C561        C  0.98592759  0.78685894  0.65891249     0.03410
C562        C  0.98405812  0.75371277  0.63583092    -0.12740
C563        C  0.98847168  0.71940344  0.65653101     0.00910
C564        C  0.99644905  0.71833484  0.69998129    -0.11260
C565        C  0.99704902  0.75107861  0.72453438     0.03410
C566        C  0.99134730  0.78539029  0.70299701    -0.10680
H567        H  0.97948108  0.75466102  0.60181384     0.09000
H568        H  0.00192479  0.69142712  0.71379921     0.06530
H569        H  0.99100244  0.81150586  0.71951848     0.06380
C570        C  0.00803009  0.71354171  0.83874921     0.03410
C571        C  0.01531304  0.74649630  0.86076475    -0.12740
C572        C  0.01612917  0.78079021  0.83930143     0.00910
C573        C  0.01205566  0.78206440  0.79502549    -0.11260
C574        C  0.00361055  0.74931359  0.77189365     0.03410
C575        C  0.00082132  0.71498892  0.79504480    -0.10680
H576        H  0.01884165  0.74550697  0.89498521     0.09000
H577        H  0.01487115  0.80916298  0.77974929     0.06530
H578        H  0.99305067  0.68899744  0.78008543     0.06380
C579        C  0.22410521  0.49878588  0.65423146     0.03410
C580        C  0.22354065  0.51248491  0.69596558    -0.12740
C581        C  0.25492300  0.51016076  0.72231403     0.00910
C582        C  0.28844933  0.49760507  0.70419246    -0.11260
C583        C  0.29098604  0.48819875  0.66105716     0.03410
C584        C  0.25850349  0.48834632  0.63668895    -0.10680
H585        H  0.19814865  0.52409810  0.70800639     0.09000
H586        H  0.31277561  0.49422952  0.72350807     0.06530
H587        H  0.26013217  0.47990496  0.60388029     0.06380
C588        C  0.21558088  0.51553639  0.83574731     0.03410
C589        C  0.24852831  0.51935237  0.85870935    -0.12740
C590        C  0.28336215  0.52393691  0.83786438     0.00910
C591        C  0.28438873  0.52581552  0.79306286    -0.11260
C592        C  0.25203336  0.51758013  0.76919955     0.03410
C593        C  0.21738891  0.51327812  0.79131047    -0.10680
H594        H  0.24670774  0.51790725  0.89316426     0.09000
H595        H  0.31083167  0.53231381  0.77701703     0.06530
H596        H  0.19168343  0.50736710  0.77473195     0.06380
C597        C  0.03653502  0.63508889  0.91107319    -0.11980
C598        C  0.00188731  0.61673724  0.92045524     0.05020
C599        C  0.46952348  0.62885957  0.89976612    -0.07270
C600        C  0.47282145  0.65879970  0.87046153    -0.08010
C601        C  0.00729843  0.67770828  0.86247254    -0.02570
C602        C  0.03971570  0.66534342  0.88233890     0.04250
N603        N  0.07584088  0.68340775  0.87403184     0.66760
H604        H  0.06145155  0.62582497  0.92635673     0.15550
H605        H  0.44786783  0.66907047  0.85602106     0.15370
N606        N  0.43287436  0.61332623  0.91032117     0.74460
O607        O  0.10034593  0.68405529  0.90245576    -0.38990
O608        O  0.08442891  0.69632772  0.83739534    -0.38930
O609        O  0.42096970  0.61377729  0.94836406    -0.39640
O610        O  0.40998674  0.60639701  0.88107227    -0.39700
C611        C  0.04795724  0.82473431  0.88882983    -0.11980
C612        C  0.01690831  0.81553474  0.86385782     0.05020
C613        C  0.48646335  0.83929226  0.86295348    -0.07270
C614        C  0.48830556  0.87219304  0.88618838    -0.08010
C615        C  0.01899349  0.88150234  0.91190336    -0.02570
C616        C  0.04958015  0.85760894  0.91276331     0.04250
N617        N  0.08256548  0.86637178  0.93670028     0.66760
H618        H  0.07131236  0.80641740  0.88911296     0.15660
H619        H  0.46426214  0.88960406  0.88601422     0.15370
N620        N  0.45264996  0.82951015  0.84074903     0.74460
O621        O  0.10006459  0.84048388  0.95404971    -0.38990
O622        O  0.09756600  0.89886087  0.93484471    -0.38930
O623        O  0.43919485  0.79636985  0.84213059    -0.39640
O624        O  0.43338973  0.85480485  0.82489474    -0.39700
C625        C  0.44918679  0.63039764  0.60652566    -0.11980
C626        C  0.98156982  0.61661693  0.58771492     0.05020
C627        C  0.01582639  0.63732223  0.59093733    -0.07270
C628        C  0.01707028  0.67087447  0.61325076    -0.08010
C629        C  0.98495089  0.68413352  0.63297553    -0.02570
C630        C  0.45038291  0.66364480  0.62990112     0.04250
N631        N  0.41636233  0.67611855  0.64943916     0.66760
H632        H  0.42283275  0.61488950  0.60320470     0.15660
H633        H  0.04336366  0.68679534  0.61519334     0.15370
N634        N  0.04898768  0.62618708  0.56919297     0.74460
O635        O  0.38498524  0.66497749  0.63564190    -0.38990
O636        O  0.41715169  0.69577829  0.68244312    -0.38930
O637        O  0.06477984  0.64786535  0.54175737    -0.39640
O638        O  0.06598592  0.59828189  0.58256292    -0.39700
C639        C  0.45625189  0.87240709  0.59606962    -0.11980
C640        C  0.99135885  0.88918118  0.58525564     0.05020
C641        C  0.02378992  0.87362526  0.60166541    -0.07270
C642        C  0.02056906  0.84134516  0.62731916    -0.08010
C643        C  0.98574063  0.82337569  0.63623829    -0.02570
C644        C  0.45272653  0.83962463  0.62153019     0.04250
N645        N  0.41577325  0.82389517  0.63182427     0.66760
H646        H  0.43142185  0.88450186  0.58341775     0.15660
H647        H  0.04579860  0.82880675  0.63831268     0.15370
N648        N  0.06033303  0.88743787  0.58866167     0.74460
O649        O  0.38743515  0.84319769  0.62649688    -0.38990
O650        O  0.41086251  0.79091266  0.64606606    -0.38930
O651        O  0.08454869  0.89447215  0.61646030    -0.39640
O652        O  0.07083308  0.88355388  0.55050076    -0.39700
C653        C  0.38064342  0.50275192  0.87731739    -0.11980
C654        C  0.37980435  0.51740300  0.91859778     0.05020
C655        C  0.34807759  0.03679960  0.93183113    -0.07270
C656        C  0.31865460  0.04128951  0.90346636    -0.08010
C657        C  0.31827941  0.52408771  0.86338216    -0.02570
C658        C  0.35003687  0.50452634  0.85039464     0.04250
N659        N  0.35080741  0.48362130  0.81179314     0.66760
H660        H  0.40450957  0.48755294  0.86656230     0.15660
H661        H  0.29486646  0.05668741  0.91398527     0.15370
N662        N  0.34376094  0.04967071  0.97460675     0.74460
O663        O  0.37926686  0.48617374  0.78746089    -0.38990
O664        O  0.32606018  0.95822811  0.80561204    -0.38930
O665        O  0.33214888  0.58192613  0.48103356    -0.39640
O666        O  0.34349869  0.02644046  0.50524486    -0.39700
C667        C  0.12168893  0.98390348  0.88561649    -0.11980
C668        C  0.11502276  0.01403774  0.91270554     0.05020
C669        C  0.13990735  0.54582554  0.91049880    -0.07270
C670        C  0.17145802  0.54567174  0.88373828    -0.08010
C671        C  0.17945805  0.51453314  0.85927363    -0.02570
C672        C  0.15394753  0.98336279  0.85947412     0.04250
N673        N  0.16107981  0.95038661  0.83543362     0.66760
H674        H  0.10268424  0.95964314  0.88641506     0.15660
H675        H  0.19070184  0.56983770  0.88303929     0.15370
N676        N  0.13416176  0.57851345  0.93515200     0.74460
O677        O  0.13414066  0.93028369  0.82196110    -0.38990
O678        O  0.19382571  0.93888683  0.83167638    -0.38930
O679        O  0.14058087  0.57792057  0.47452124    -0.39640
O680        O  0.13267486  0.60970253  0.91622516    -0.39700
C681        C  0.35950213  0.50282814  0.65067236    -0.11980
C682        C  0.32791320  0.48011500  0.64081760     0.05020
C683        C  0.33165185  0.95268994  0.60914906    -0.07270
C684        C  0.36475584  0.95235328  0.58461778    -0.08010
C685        C  0.39520979  0.47737172  0.59193648    -0.02570
C686        C  0.39344859  0.50085741  0.62776387     0.04250
N687        N  0.42543117  0.02276457  0.64142239     0.66760
H688        H  0.35758415  0.52303311  0.67584112     0.15660
H689        H  0.36638530  0.93266503  0.55887125     0.15370
N690        N  0.30240734  0.42501125  0.60146071     0.74460
O691        O  0.42118450  0.55434592  0.65772367    -0.38990
O692        O  0.45641694  0.00758950  0.64542271    -0.38930
O693        O  0.29745712  0.41274559  0.56441730    -0.39640
O694        O  0.28363068  0.91028983  0.63216581    -0.39700
C695        C  0.12200969  0.48006020  0.62192136    -0.11980
C696        C  0.12496177  0.48432050  0.57760366     0.05020
C697        C  0.16024804  0.99356307  0.55853414    -0.07270
C698        C  0.19108582  0.00056722  0.58454730    -0.08010
C699        C  0.18900175  0.49453619  0.62891336    -0.02570
C700        C  0.15380882  0.48297140  0.64755802     0.04250
N701        N  0.15003938  0.97177848  0.69157564     0.66760
H702        H  0.09505015  0.47235027  0.63639878     0.15660
H703        H  0.21725963  0.00994732  0.56949103     0.15370
N704        N  0.16557328  0.49601141  0.51303603     0.74460
O705        O  0.12177768  0.48063022  0.71315850    -0.38990
O706        O  0.17179300  0.94845785  0.70701976    -0.38930
O707        O  0.18898050  0.51977558  0.99704663    -0.39640
O708        O  0.15388337  0.96952919  0.99011295    -0.39700
O709        O  0.58719608  0.45585164  0.02457306    -0.79850
O710        O  0.95187897  0.00526931  0.06131894    -0.79880
O711        O  0.50360407  0.05812184  0.06251918    -0.79880
O712        O  0.97474829  0.41582521  0.01928476    -0.79830
O713        O  0.95074827  0.07846001  0.03645777    -0.79950
O714        O  0.51586126  0.44766413  0.05638995    -0.79870
O715        O  0.92039356  0.46537430  0.02298633    -0.79850
O716        O  0.56419069  0.00434960  0.05798563    -0.79890
C717        C  0.59088553  0.98145810  0.05188553     1.09840
C718        C  0.92486445  0.98190657  0.05807481     1.09720
C719        C  0.47850947  0.08317347  0.06082820     1.09860
C720        C  0.49353855  0.41970613  0.05286101     1.09740
O721        O  0.53374111  0.41778386  0.47390717    -0.79850
O722        O  0.97380970  0.06289765  0.45543250    -0.79930
O723        O  0.57999167  0.03398597  0.47311792    -0.79870
O724        O  0.93560280  0.48725336  0.43513542    -0.79850
O725        O  0.91561614  0.02608987  0.48242306    -0.79900
O726        O  0.56402385  0.48086156  0.44756524    -0.79860
O727        O  0.99112924  0.43754764  0.43134507    -0.79820
O728        O  0.52699071  0.08251239  0.47790183    -0.79890
Co729      Co  0.53999978  0.46742226  0.00270438     1.51530
Co730      Co  0.96590786  0.03453452  0.00899928     1.51690
Co731      Co  0.53835627  0.03910287  0.01520922     1.51570
Co732      Co  0.95832595  0.45451447  0.47743673     1.51470
O733        O  0.49787457  0.49668810  0.98799764    -1.41790
C734        C  0.01546854  0.41418920  0.43986721     1.09760
C735        C  0.00077257  0.08580260  0.45236872     1.09850
C736        C  0.58435668  0.50990614  0.44517144     1.09790
C737        C  0.91178945  0.01027437  0.44675972     1.09770
C738        C  0.48592995  0.28685987  0.15891244     0.03410
C739        C  0.48405723  0.25371369  0.13583101    -0.12740
C740        C  0.48846687  0.21940376  0.15653137     0.00910
C741        C  0.49644398  0.21833449  0.19998172    -0.11260
C742        C  0.49704732  0.25107843  0.22453460     0.03410
C743        C  0.49134926  0.28539077  0.20299700    -0.10680
H744        H  0.47948048  0.25466235  0.10181388     0.09000
H745        H  0.50191692  0.19142614  0.21379983     0.06530
H746        H  0.49100683  0.31150649  0.21951835     0.06380
C747        C  0.50802433  0.21354074  0.33874971     0.03410
C748        C  0.51531064  0.24649480  0.36076501    -0.12740
C749        C  0.51613045  0.28078864  0.33930148     0.00910
C750        C  0.51205696  0.28206312  0.29502555    -0.11260
C751        C  0.50360852  0.24931294  0.27189391     0.03410
C752        C  0.50081578  0.21498848  0.29504528    -0.10680
H753        H  0.51883919  0.24550526  0.39498549     0.09000
H754        H  0.51487513  0.30916150  0.27974922     0.06530
H755        H  0.49304270  0.18899760  0.28008606     0.06380
C756        C  0.72409031  0.99878814  0.15423266     0.03410
C757        C  0.72352594  0.01248634  0.19596710    -0.12740
C758        C  0.75490829  0.01016125  0.22231541     0.00910
C759        C  0.78843430  0.99760494  0.20419350    -0.11260
C760        C  0.79097085  0.98819962  0.16105784     0.03410
C761        C  0.75848838  0.98834873  0.13668970    -0.10680
H762        H  0.69813406  0.02409964  0.20800810     0.09000
H763        H  0.81276043  0.99422824  0.22350905     0.06530
H764        H  0.76011689  0.97990852  0.10388066     0.06380
C765        C  0.71556639  0.01553969  0.33574879     0.03410
C766        C  0.74851390  0.01935539  0.35871075    -0.12740
C767        C  0.78334778  0.02393783  0.33786563     0.00910
C768        C  0.78437463  0.02581512  0.29306413    -0.11260
C769        C  0.75201898  0.01758081  0.26920093     0.03410
C770        C  0.71737441  0.01328049  0.29131197    -0.10680
H771        H  0.74669354  0.01791137  0.39316573     0.09000
H772        H  0.81081805  0.03231144  0.27701846     0.06530
H773        H  0.69166877  0.00736996  0.27473357     0.06380
C774        C  0.53652352  0.13508723  0.41107551    -0.11980
C775        C  0.50187482  0.11673733  0.42045697     0.05020
C776        C  0.96951205  0.12886082  0.39976666    -0.07270
C777        C  0.97281206  0.15880049  0.37046153    -0.08010
C778        C  0.50729007  0.17770735  0.36247321    -0.02570
C779        C  0.53970619  0.16534120  0.38234077     0.04250
N780        N  0.57583222  0.18340392  0.37403461     0.66760
H781        H  0.56143933  0.12582239  0.42635983     0.15550
H782        H  0.94785931  0.16907234  0.35602016     0.15370
N783        N  0.93286212  0.11332917  0.41032100     0.74460
O784        O  0.60033548  0.18405339  0.40246051    -0.38990
O785        O  0.58442246  0.19632115  0.33739751    -0.38930
O786        O  0.92095719  0.11378009  0.44836378    -0.39640
O787        O  0.90997452  0.10640133  0.38107169    -0.39700
C788        C  0.54796272  0.32473055  0.38882912    -0.11980
C789        C  0.51691273  0.31553319  0.36385779     0.05020
C790        C  0.98646948  0.33929275  0.36295435    -0.07270
C791        C  0.98831441  0.37219337  0.38618927    -0.08010
C792        C  0.51900338  0.38150064  0.41190350    -0.02570
C793        C  0.54958834  0.35760511  0.41276273     0.04250
N794        N  0.58257461  0.36636570  0.43669900     0.66760
H795        H  0.57131648  0.30641194  0.38911164     0.15660
H796        H  0.96427217  0.38960599  0.38601569     0.15370
N797        N  0.95265503  0.32951295  0.34075076     0.74460
O798        O  0.60007276  0.34047645  0.45404711    -0.38990
O799        O  0.59757670  0.39885414  0.43484411    -0.38930
O800        O  0.93919770  0.29637348  0.34213261    -0.39640
O801        O  0.93339619  0.35480906  0.32489714    -0.39700
C802        C  0.94917596  0.13039894  0.10652876    -0.11980
C803        C  0.48155749  0.11661714  0.08771584     0.05020
C804        C  0.51581491  0.13732142  0.09093583    -0.07270
C805        C  0.51706107  0.17087380  0.11324892    -0.08010
C806        C  0.48494324  0.18413399  0.13297589    -0.02570
C807        C  0.95037440  0.16364633  0.12990391     0.04250
N808        N  0.91635518  0.17612140  0.14944389     0.66760
H809        H  0.92282132  0.11489142  0.10320985     0.15660
H810        H  0.54335512  0.18679377  0.11518974     0.15370
N811        N  0.54897485  0.12618489  0.06918975     0.74460
O812        O  0.88497707  0.16498083  0.13564902    -0.38990
O813        O  0.91714676  0.19578219  0.18244697    -0.38930
O814        O  0.56476722  0.14786293  0.04175407    -0.39640
O815        O  0.56597234  0.09827887  0.08255873    -0.39700
C816        C  0.95626057  0.37241012  0.09606914    -0.11980
C817        C  0.49136856  0.38918238  0.08525619     0.05020
C818        C  0.52379829  0.37362507  0.10166739    -0.07270
C819        C  0.52057527  0.34134467  0.12732052    -0.08010
C820        C  0.48574574  0.32337682  0.13623832    -0.02570
C821        C  0.95273292  0.33962788  0.12152976     0.04250
N822        N  0.91577863  0.32390096  0.13182368     0.66760
H823        H  0.93143149  0.38450618  0.08341646     0.15660
H824        H  0.54580386  0.32880505  0.13831497     0.15370
N825        N  0.56034224  0.38743714  0.08866633     0.74460
O826        O  0.88744212  0.34320606  0.12649776    -0.38990
O827        O  0.91086544  0.29091829  0.14606421    -0.38930
O828        O  0.58455519  0.39447467  0.11646701    -0.39640
O829        O  0.57084555  0.38355084  0.05050692    -0.39700
C830        C  0.88062683  0.00274727  0.37732023    -0.11980
C831        C  0.87978983  0.01740253  0.41859873     0.05020
C832        C  0.84809011  0.53679594  0.43183221    -0.07270
C833        C  0.81866725  0.54128627  0.40346734    -0.08010
C834        C  0.81826488  0.02408747  0.36338327    -0.02570
C835        C  0.85002016  0.00452195  0.35039768     0.04250
N836        N  0.85078809  0.98361332  0.31179860     0.66760
H837        H  0.90449128  0.98754501  0.36656667     0.15660
H838        H  0.79487776  0.55668140  0.41398783     0.15370
N839        N  0.84377121  0.54966160  0.47460984     0.74460
O840        O  0.87924807  0.98615944  0.28746678    -0.38990
O841        O  0.82608318  0.45823295  0.30560450    -0.38930
O842        O  0.83214381  0.08193808  0.98102562    -0.39640
O843        O  0.84351271  0.52642807  0.00524468    -0.39700
C844        C  0.62170453  0.48389888  0.38561687    -0.11980
C845        C  0.61503733  0.51403424  0.41270399     0.05020
C846        C  0.63989381  0.04582833  0.41050227    -0.07270
C847        C  0.67144450  0.04567464  0.38374169    -0.08010
C848        C  0.67944354  0.01453684  0.35927519    -0.02570
C849        C  0.65396313  0.48335813  0.35947441     0.04250
N850        N  0.66109643  0.45038121  0.33543560     0.66760
H851        H  0.60270067  0.45963793  0.38641704     0.15660
H852        H  0.69068911  0.06983999  0.38304408     0.15370
N853        N  0.63414919  0.07851546  0.43515722     0.74460
O854        O  0.63415784  0.43027593  0.32196584    -0.38990
O855        O  0.69384301  0.43888353  0.33167676    -0.38930
O856        O  0.64056663  0.07792017  0.97452704    -0.39640
O857        O  0.63266512  0.10970562  0.41623214    -0.39700
C858        C  0.85948752  0.00282669  0.15067389    -0.11980
C859        C  0.82789771  0.98011532  0.14081775     0.05020
C860        C  0.83166844  0.45268807  0.10915091    -0.07270
C861        C  0.86477239  0.45235178  0.08461943    -0.08010
C862        C  0.89519429  0.97737140  0.09193654    -0.02570
C863        C  0.89343387  0.00085568  0.12776519     0.04250
N864        N  0.92544517  0.52276794  0.14142006     0.66760
H865        H  0.85757039  0.02303062  0.17584385     0.15660
H866        H  0.86640273  0.43266236  0.05887418     0.15370
N867        N  0.80238944  0.92501519  0.10145621     0.74460
O868        O  0.92117179  0.05434256  0.15772642    -0.38990
O869        O  0.95643160  0.50759421  0.14542077    -0.38930
O870        O  0.79743753  0.91275385  0.06441120    -0.39640
O871        O  0.78364875  0.41028785  0.13217150    -0.39700
C872        C  0.62199521  0.98006130  0.12192210    -0.11980
C873        C  0.62494750  0.98432193  0.07760444     0.05020
C874        C  0.66026238  0.49356072  0.05853308    -0.07270
C875        C  0.69110061  0.50056403  0.08454591    -0.08010
C876        C  0.68898686  0.99453880  0.12891463    -0.02570
C877        C  0.65379411  0.98297307  0.14755900     0.04250
N878        N  0.65005407  0.47177719  0.19157477     0.66760
H879        H  0.59503573  0.97235062  0.13639925     0.15660
H880        H  0.71727458  0.50994326  0.06948934     0.15370
N881        N  0.66555940  0.99601361  0.01303710     0.74460
O882        O  0.62176273  0.98063088  0.21315930    -0.38990
O883        O  0.67180753  0.44845652  0.20701913    -0.38930
O884        O  0.68896716  0.01977760  0.49704806    -0.39640
O885        O  0.65389691  0.46952692  0.49011193    -0.39700
O886        O  0.58719606  0.45585164  0.52457307    -0.79850
O887        O  0.95187895  0.00526931  0.56131895    -0.79880
O888        O  0.50360406  0.05812185  0.56251917    -0.79880
O889        O  0.97474832  0.41582522  0.51928477    -0.79830
O890        O  0.95074824  0.07846001  0.53645777    -0.79950
O891        O  0.51586125  0.44766415  0.55638996    -0.79870
O892        O  0.92039358  0.46537430  0.52298634    -0.79850
O893        O  0.56419069  0.00434961  0.55798563    -0.79890
C894        C  0.59088553  0.98145812  0.55188553     1.09840
C895        C  0.92486443  0.98190657  0.55807481     1.09720
C896        C  0.47850946  0.08317348  0.56082819     1.09860
C897        C  0.49353854  0.41970615  0.55286104     1.09740
O898        O  0.53374113  0.41778386  0.97390715    -0.79850
O899        O  0.97380972  0.06289765  0.95543249    -0.79930
O900        O  0.57999167  0.03398595  0.97311793    -0.79870
O901        O  0.93560279  0.48725336  0.93513542    -0.79850
O902        O  0.91561616  0.02608987  0.98242306    -0.79900
O903        O  0.56402386  0.48086156  0.94756523    -0.79860
O904        O  0.99112922  0.43754763  0.93134506    -0.79820
O905        O  0.52699071  0.08251238  0.97790183    -0.79890
Co906      Co  0.53999976  0.46742226  0.50270438     1.51530
Co907      Co  0.96590784  0.03453452  0.50899929     1.51690
Co908      Co  0.53835627  0.03910288  0.51520922     1.51570
Co909      Co  0.95832593  0.45451446  0.97743672     1.51470
O910        O  0.49787455  0.49668810  0.48799764    -1.41790
C911        C  0.01546852  0.41418919  0.93986720     1.09760
C912        C  0.00077259  0.08580260  0.95236871     1.09850
C913        C  0.58435669  0.50990615  0.94517144     1.09790
C914        C  0.91178947  0.01027436  0.94675972     1.09770
C915        C  0.48592995  0.28685988  0.65891245     0.03410
C916        C  0.48405723  0.25371370  0.63583101    -0.12740
C917        C  0.48846686  0.21940377  0.65653137     0.00910
C918        C  0.49644397  0.21833448  0.69998172    -0.11260
C919        C  0.49704731  0.25107843  0.72453460     0.03410
C920        C  0.49134926  0.28539077  0.70299701    -0.10680
H921        H  0.47948048  0.25466236  0.60181388     0.09000
H922        H  0.50191690  0.19142614  0.71379983     0.06530
H923        H  0.49100684  0.31150649  0.71951835     0.06380
C924        C  0.50802433  0.21354073  0.83874971     0.03410
C925        C  0.51531064  0.24649479  0.86076501    -0.12740
C926        C  0.51613045  0.28078863  0.83930148     0.00910
C927        C  0.51205696  0.28206311  0.79502555    -0.11260
C928        C  0.50360852  0.24931293  0.77189391     0.03410
C929        C  0.50081577  0.21498848  0.79504528    -0.10680
H930        H  0.51883919  0.24550525  0.89498549     0.09000
H931        H  0.51487513  0.30916149  0.77974923     0.06530
H932        H  0.49304270  0.18899759  0.78008606     0.06380
C933        C  0.72409029  0.99878819  0.65423267     0.03410
C934        C  0.72352593  0.01248637  0.69596711    -0.12740
C935        C  0.75490828  0.01016127  0.72231542     0.00910
C936        C  0.78843429  0.99760496  0.70419351    -0.11260
C937        C  0.79097084  0.98819965  0.66105784     0.03410
C938        C  0.75848837  0.98834877  0.63668970    -0.10680
H939        H  0.69813406  0.02409968  0.70800813     0.09000
H940        H  0.81276042  0.99422824  0.72350906     0.06530
H941        H  0.76011688  0.97990858  0.60388066     0.06380
C942        C  0.71556640  0.01553968  0.83574880     0.03410
C943        C  0.74851391  0.01935538  0.85871076    -0.12740
C944        C  0.78334779  0.02393783  0.83786564     0.00910
C945        C  0.78437464  0.02581513  0.79306414    -0.11260
C946        C  0.75201898  0.01758082  0.76920095     0.03410
C947        C  0.71737441  0.01328049  0.79131198    -0.10680
H948        H  0.74669355  0.01791136  0.89316575     0.09000
H949        H  0.81081805  0.03231146  0.77701847     0.06530
H950        H  0.69166877  0.00736996  0.77473359     0.06380
C951        C  0.53652352  0.13508723  0.91107552    -0.11980
C952        C  0.50187482  0.11673732  0.92045697     0.05020
C953        C  0.96951208  0.12886079  0.89976663    -0.07270
C954        C  0.97281209  0.15880047  0.87046149    -0.08010
C955        C  0.50729007  0.17770734  0.86247321    -0.02570
C956        C  0.53970619  0.16534119  0.88234077     0.04250
N957        N  0.57583222  0.18340392  0.87403461     0.66760
H958        H  0.56143933  0.12582239  0.92635983     0.15550
H959        H  0.94785935  0.16907230  0.85602010     0.15370
N960        N  0.93286215  0.11332913  0.91032093     0.74460
O961        O  0.60033548  0.18405339  0.90246051    -0.38990
O962        O  0.58442246  0.19632114  0.83739751    -0.38930
O963        O  0.92095719  0.11378005  0.94836370    -0.39640
O964        O  0.90997458  0.10640127  0.88107160    -0.39700
C965        C  0.54796273  0.32473054  0.88882912    -0.11980
C966        C  0.51691274  0.31553318  0.86385779     0.05020
C967        C  0.98646946  0.33929273  0.86295436    -0.07270
C968        C  0.98831438  0.37219335  0.88618928    -0.08010
C969        C  0.51900341  0.38150064  0.91190348    -0.02570
C970        C  0.54958836  0.35760511  0.91276272     0.04250
N971        N  0.58257463  0.36636569  0.93669899     0.66760
H972        H  0.57131649  0.30641193  0.88911165     0.15660
H973        H  0.96427214  0.38960596  0.88601571     0.15370
N974        N  0.95265501  0.32951291  0.84075078     0.74460
O975        O  0.60007277  0.34047644  0.95404710    -0.38990
O976        O  0.59757673  0.39885413  0.93484410    -0.38930
O977        O  0.93919770  0.29637343  0.84213264    -0.39640
O978        O  0.93339615  0.35480902  0.82489717    -0.39700
C979        C  0.94917594  0.13039892  0.60652879    -0.11980
C980        C  0.48155748  0.11661715  0.58771583     0.05020
C981        C  0.51581489  0.13732145  0.59093578    -0.07270
C982        C  0.51706105  0.17087383  0.61324887    -0.08010
C983        C  0.48494323  0.18413400  0.63297589    -0.02570
C984        C  0.95037438  0.16364632  0.62990394     0.04250
N985        N  0.91635516  0.17612137  0.64944394     0.66760
H986        H  0.92282130  0.11489139  0.60320991     0.15660
H987        H  0.54335509  0.18679382  0.61518967     0.15370
N988        N  0.54897482  0.12618495  0.56918967     0.74460
O989        O  0.88497705  0.16498077  0.63564911    -0.38990
O990        O  0.91714675  0.19578218  0.68244700    -0.38930
O991        O  0.56476718  0.14786301  0.54175400    -0.39640
O992        O  0.56597233  0.09827892  0.58255860    -0.39700
C993        C  0.95626059  0.37241014  0.59606913    -0.11980
C994        C  0.49136856  0.38918240  0.58525622     0.05020
C995        C  0.52379830  0.37362506  0.60166737    -0.07270
C996        C  0.52057528  0.34134466  0.62732049    -0.08010
C997        C  0.48574575  0.32337683  0.63623833    -0.02570
C998        C  0.95273293  0.33962789  0.62152975     0.04250
N999        N  0.91577863  0.32390097  0.63182365     0.66760
H1000       H  0.93143151  0.38450620  0.58341645     0.15660
H1001       H  0.54580388  0.32880502  0.63831490     0.15370
N1002       N  0.56034224  0.38743713  0.58866628     0.74460
O1003       O  0.88744213  0.34320606  0.62649769    -0.38990
O1004       O  0.91086545  0.29091832  0.64606422    -0.38930
O1005       O  0.58455520  0.39447468  0.61646694    -0.39640
O1006       O  0.57084554  0.38355080  0.55050687    -0.39700
C1007       C  0.88062685  0.00274729  0.87732022    -0.11980
C1008       C  0.87978985  0.01740253  0.91859873     0.05020
C1009       C  0.84809009  0.53679593  0.93183220    -0.07270
C1010       C  0.81866723  0.54128626  0.90346733    -0.08010
C1011       C  0.81826489  0.02408748  0.86338328    -0.02570
C1012       C  0.85002018  0.00452197  0.85039768     0.04250
N1013       N  0.85078812  0.98361335  0.81179859     0.66760
H1014       H  0.90449131  0.98754503  0.86656666     0.15660
H1015       H  0.79487775  0.55668138  0.91398782     0.15370
N1016       N  0.84377119  0.54966158  0.97460984     0.74460
O1017       O  0.87924809  0.98615949  0.78746676    -0.38990
O1018       O  0.82608319  0.45823295  0.80560448    -0.38930
O1019       O  0.83214381  0.08193811  0.48102558    -0.39640
O1020       O  0.84351272  0.52642811  0.50524469    -0.39700
C1021       C  0.62170453  0.48389888  0.88561686    -0.11980
C1022       C  0.61503733  0.51403424  0.91270398     0.05020
C1023       C  0.63989381  0.04582832  0.91050227    -0.07270
C1024       C  0.67144450  0.04567463  0.88374170    -0.08010
C1025       C  0.67944355  0.01453683  0.85927521    -0.02570
C1026       C  0.65396313  0.48335813  0.85947440     0.04250
N1027       N  0.66109642  0.45038120  0.83543560     0.66760
H1028       H  0.60270067  0.45963793  0.88641705     0.15660
H1029       H  0.69068910  0.06983998  0.88304408     0.15370
N1030       N  0.63414918  0.07851546  0.93515721     0.74460
O1031       O  0.63415783  0.43027591  0.82196586    -0.38990
O1032       O  0.69384301  0.43888353  0.83167675    -0.38930
O1033       O  0.64056663  0.07792017  0.47452705    -0.39640
O1034       O  0.63266511  0.10970561  0.91623212    -0.39700
C1035       C  0.85948752  0.00282669  0.65067390    -0.11980
C1036       C  0.82789769  0.98011534  0.64081775     0.05020
C1037       C  0.83166847  0.45268803  0.60915093    -0.07270
C1038       C  0.86477243  0.45235175  0.58461946    -0.08010
C1039       C  0.89519427  0.97737140  0.59193654    -0.02570
C1040       C  0.89343386  0.00085566  0.62776520     0.04250
N1041       N  0.92544517  0.52276796  0.64142006     0.66760
H1042       H  0.85757040  0.02303060  0.67584387     0.15660
H1043       H  0.86640278  0.43266232  0.55887421     0.15370
N1044       N  0.80238939  0.92501524  0.60145618     0.74460
O1045       O  0.92117182  0.05434251  0.65772646    -0.38990
O1046       O  0.95643161  0.50759425  0.64542077    -0.38930
O1047       O  0.79743747  0.91275392  0.56441116    -0.39640
O1048       O  0.78364880  0.41028780  0.63217155    -0.39700
C1049       C  0.62199520  0.98006134  0.62192210    -0.11980
C1050       C  0.62494749  0.98432195  0.57760445     0.05020
C1051       C  0.66026238  0.49356068  0.55853307    -0.07270
C1052       C  0.69110062  0.50056397  0.58454590    -0.08010
C1053       C  0.68898685  0.99453885  0.62891464    -0.02570
C1054       C  0.65379410  0.98297311  0.64755901     0.04250
N1055       N  0.65005407  0.47177717  0.69157477     0.66760
H1056       H  0.59503572  0.97235065  0.63639925     0.15660
H1057       H  0.71727459  0.50994318  0.56948932     0.15370
N1058       N  0.66555941  0.99601363  0.51303711     0.74460
O1059       O  0.62176271  0.98063095  0.71315931    -0.38990
O1060       O  0.67180752  0.44845650  0.70701913    -0.38930
O1061       O  0.68896715  0.01977759  0.99704806    -0.39640
O1062       O  0.65389692  0.46952697  0.99011194    -0.39700
O1063       O  0.58718278  0.95585402  0.02457248    -0.79850
O1064       O  0.95189416  0.50526948  0.06131782    -0.79880
O1065       O  0.50361971  0.55812314  0.06251704    -0.79880
O1066       O  0.97473534  0.91582494  0.01928561    -0.79830
O1067       O  0.95076311  0.57845965  0.03645558    -0.79950
O1068       O  0.51584837  0.94766437  0.05639022    -0.79870
O1069       O  0.92037945  0.96537348  0.02298721    -0.79850
O1070       O  0.56420546  0.50434934  0.05798388    -0.79890
C1071       C  0.59089961  0.48145678  0.05188482     1.09840
C1072       C  0.92487931  0.48190705  0.05807406     1.09720
C1073       C  0.47852396  0.58317372  0.06082630     1.09860
C1074       C  0.49352650  0.91970572  0.05286127     1.09740
O1075       O  0.53372845  0.91778566  0.47390734    -0.79850
O1076       O  0.97382428  0.56289681  0.45543079    -0.79930
O1077       O  0.58000603  0.53398433  0.47311525    -0.79870
O1078       O  0.93558833  0.98725297  0.43513674    -0.79850
O1079       O  0.91563079  0.52608995  0.48242203    -0.79900
O1080       O  0.56400890  0.98086449  0.44756534    -0.79860
O1081       O  0.99111521  0.93754734  0.43134567    -0.79820
O1082       O  0.52700563  0.58251185  0.47789867    -0.79890
Co1083     Co  0.53998591  0.96742383  0.00270467     1.51530
Co1084     Co  0.96592278  0.53453421  0.00899780     1.51690
Co1085     Co  0.53837118  0.53910255  0.01520687     1.51570
Co1086     Co  0.95831204  0.95451413  0.47743777     1.51470
O1087       O  0.49785993  0.99668857  0.98799891    -1.41790
C1088       C  0.01545599  0.91419030  0.43986748     1.09760
C1089       C  0.00078681  0.58580206  0.45236643     1.09850
C1090       C  0.58434204  0.00990889  0.44517282     1.09790
C1091       C  0.91180395  0.51027464  0.44675861     1.09770
C1092       C  0.48592760  0.78685892  0.15891247     0.03410
C1093       C  0.48405813  0.75371275  0.13583091    -0.12740
C1094       C  0.48847167  0.71940342  0.15653101     0.00910
C1095       C  0.49644903  0.71833482  0.19998129    -0.11260
C1096       C  0.49704901  0.75107861  0.22453437     0.03410
C1097       C  0.49134730  0.78539028  0.20299700    -0.10680
H1098       H  0.47948109  0.75466100  0.10181383     0.09000
H1099       H  0.50192477  0.69142711  0.21379921     0.06530
H1100       H  0.49100245  0.81150585  0.21951846     0.06380
C1101       C  0.50803007  0.71354171  0.33874920     0.03410
C1102       C  0.51531303  0.74649630  0.36076474    -0.12740
C1103       C  0.51612915  0.78079021  0.33930142     0.00910
C1104       C  0.51205564  0.78206440  0.29502548    -0.11260
C1105       C  0.50361053  0.74931359  0.27189364     0.03410
C1106       C  0.50082131  0.71498892  0.29504480    -0.10680
H1107       H  0.51884164  0.74550697  0.39498520     0.09000
H1108       H  0.51487112  0.80916298  0.27974928     0.06530
H1109       H  0.49305066  0.68899744  0.28008543     0.06380
C1110       C  0.72410520  0.49878593  0.15423145     0.03410
C1111       C  0.72354065  0.51248494  0.19596559    -0.12740
C1112       C  0.75492300  0.51016077  0.22231403     0.00910
C1113       C  0.78844931  0.49760506  0.20419245    -0.11260
C1114       C  0.79098602  0.48819877  0.16105713     0.03410
C1115       C  0.75850347  0.48834638  0.13668893    -0.10680
H1116       H  0.69814865  0.52409813  0.20800641     0.09000
H1117       H  0.81277560  0.49422948  0.22350805     0.06530
H1118       H  0.76013215  0.47990504  0.10388026     0.06380
C1119       C  0.71558089  0.51553636  0.33574731     0.03410
C1120       C  0.74852831  0.51935236  0.35870935    -0.12740
C1121       C  0.78336215  0.52393689  0.33786438     0.00910
C1122       C  0.78438874  0.52581550  0.29306286    -0.11260
C1123       C  0.75203337  0.51758011  0.26919955     0.03410
C1124       C  0.71738891  0.51327810  0.29131048    -0.10680
H1125       H  0.74670775  0.51790723  0.39316426     0.09000
H1126       H  0.81083167  0.53231379  0.27701702     0.06530
H1127       H  0.69168343  0.50736708  0.27473195     0.06380
C1128       C  0.53653501  0.63508890  0.41107320    -0.11980
C1129       C  0.50188731  0.61673724  0.42045522     0.05020
C1130       C  0.96952348  0.62885958  0.39976611    -0.07270
C1131       C  0.97282146  0.65879971  0.37046152    -0.08010
C1132       C  0.50729842  0.67770828  0.36247254    -0.02570
C1133       C  0.53971569  0.66534344  0.38233891     0.04250
N1134       N  0.57584087  0.68340778  0.37403187     0.66760
H1135       H  0.56145154  0.62582499  0.42635674     0.15550
H1136       H  0.94786784  0.66907047  0.35602103     0.15370
N1137       N  0.93287437  0.61332622  0.41032114     0.74460
O1138       O  0.60034591  0.68405532  0.40245581    -0.38990
O1139       O  0.58442890  0.69632776  0.33739538    -0.38930
O1140       O  0.92096969  0.61377727  0.44836402    -0.39640
O1141       O  0.90998677  0.60639700  0.38107221    -0.39700
C1142       C  0.54795724  0.82473432  0.38882981    -0.11980
C1143       C  0.51690829  0.81553475  0.36385782     0.05020
C1144       C  0.98646336  0.83929227  0.36295348    -0.07270
C1145       C  0.98830557  0.87219305  0.38618838    -0.08010
C1146       C  0.51899348  0.88150234  0.41190336    -0.02570
C1147       C  0.54958014  0.85760895  0.41276328     0.04250
N1148       N  0.58256548  0.86637180  0.43670024     0.66760
H1149       H  0.57131236  0.80641741  0.38911292     0.15660
H1150       H  0.96426214  0.88960406  0.38601424     0.15370
N1151       N  0.95264997  0.82951015  0.34074904     0.74460
O1152       O  0.60006462  0.84048390  0.45404964    -0.38990
O1153       O  0.59756599  0.89886089  0.43484468    -0.38930
O1154       O  0.93919487  0.79636985  0.34213060    -0.39640
O1155       O  0.93338972  0.85480485  0.32489476    -0.39700
C1156       C  0.94918681  0.63039760  0.10652572    -0.11980
C1157       C  0.48156981  0.61661691  0.08771493     0.05020
C1158       C  0.51582638  0.63732220  0.09093733    -0.07270
C1159       C  0.51707027  0.67087445  0.11325076    -0.08010
C1160       C  0.48495088  0.68413350  0.13297553    -0.02570
C1161       C  0.95038293  0.66364477  0.12990117     0.04250
N1162       N  0.91636236  0.67611852  0.14943924     0.66760
H1163       H  0.92283277  0.61488946  0.10320478     0.15660
H1164       H  0.54336365  0.68679531  0.11519333     0.15370
N1165       N  0.54898767  0.62618705  0.06919297     0.74460
O1166       O  0.88498527  0.66497745  0.13564200    -0.38990
O1167       O  0.91715174  0.69577825  0.18244320    -0.38930
O1168       O  0.56477983  0.64786532  0.04175737    -0.39640
O1169       O  0.56598590  0.59828186  0.08256293    -0.39700
C1170       C  0.95625191  0.87240707  0.09606961    -0.11980
C1171       C  0.49135887  0.88918117  0.08525564     0.05020
C1172       C  0.52378994  0.87362523  0.10166538    -0.07270
C1173       C  0.52056908  0.84134513  0.12731912    -0.08010
C1174       C  0.48574064  0.82337568  0.13623827    -0.02570
C1175       C  0.95272655  0.83962461  0.12153019     0.04250
N1176       N  0.91577327  0.82389515  0.13182425     0.66760
H1177       H  0.93142187  0.88450185  0.08341774     0.15660
H1178       H  0.54579861  0.82880671  0.13831263     0.15370
N1179       N  0.56033305  0.88743783  0.08866162     0.74460
O1180       O  0.88743517  0.84319766  0.12649686    -0.38990
O1181       O  0.91086254  0.79091263  0.14606603    -0.38930
O1182       O  0.58454873  0.89447208  0.11646023    -0.39640
O1183       O  0.57083307  0.88355387  0.05050070    -0.39700
C1184       C  0.88064343  0.50275193  0.37731740    -0.11980
C1185       C  0.87980436  0.51740301  0.41859779     0.05020
C1186       C  0.84807758  0.03679960  0.43183113    -0.07270
C1187       C  0.81865459  0.04128950  0.40346636    -0.08010
C1188       C  0.81827942  0.52408770  0.36338216    -0.02570
C1189       C  0.85003688  0.50452634  0.35039464     0.04250
N1190       N  0.85080744  0.48362130  0.31179314     0.66760
H1191       H  0.90450959  0.48755296  0.36656231     0.15660
H1192       H  0.79486645  0.05668741  0.41398527     0.15370
N1193       N  0.84376093  0.04967072  0.47460675     0.74460
O1194       O  0.87926689  0.48617376  0.28746089    -0.38990
O1195       O  0.82606014  0.95822808  0.30561207    -0.38930
O1196       O  0.83214894  0.58192619  0.98103353    -0.39640
O1197       O  0.84349869  0.02644034  0.00524488    -0.39700
C1198       C  0.62168890  0.98390349  0.38561647    -0.11980
C1199       C  0.61502274  0.01403775  0.41270553     0.05020
C1200       C  0.63990735  0.54582553  0.41049878    -0.07270
C1201       C  0.67145801  0.54567173  0.38373827    -0.08010
C1202       C  0.67945806  0.51453312  0.35927363    -0.02570
C1203       C  0.65394750  0.98336280  0.35947409     0.04250
N1204       N  0.66107978  0.95038662  0.33543358     0.66760
H1205       H  0.60268421  0.95964316  0.38641503     0.15660
H1206       H  0.69070183  0.56983769  0.38303926     0.15370
N1207       N  0.63416173  0.57851345  0.43515196     0.74460
O1208       O  0.63414062  0.93028373  0.32196104    -0.38990
O1209       O  0.69382567  0.93888683  0.33167635    -0.38930
O1210       O  0.64058093  0.57792046  0.97452137    -0.39640
O1211       O  0.63267482  0.60970252  0.41622510    -0.39700
C1212       C  0.85950213  0.50282808  0.15067237    -0.11980
C1213       C  0.82791317  0.48011501  0.14081756     0.05020
C1214       C  0.83165188  0.95268991  0.10914911    -0.07270
C1215       C  0.86475587  0.95235325  0.08461782    -0.08010
C1216       C  0.89520977  0.47737170  0.09193645    -0.02570
C1217       C  0.89344859  0.50085735  0.12776388     0.04250
N1218       N  0.92543115  0.02276464  0.14142236     0.66760
H1219       H  0.85758418  0.52303303  0.17584116     0.15660
H1220       H  0.86638535  0.93266498  0.05887132     0.15370
N1221       N  0.80240725  0.42501136  0.10146054     0.74460
O1222       O  0.92118456  0.55434579  0.15772376    -0.38990
O1223       O  0.95641693  0.00758960  0.14542271    -0.38930
O1224       O  0.79745698  0.41274582  0.06441708    -0.39640
O1225       O  0.78363073  0.91028980  0.13216590    -0.39700
C1226       C  0.62200967  0.48006024  0.12192136    -0.11980
C1227       C  0.62496175  0.48432049  0.07760366     0.05020
C1228       C  0.66024805  0.99356308  0.05853414    -0.07270
C1229       C  0.69108583  0.00056720  0.08454730    -0.08010
C1230       C  0.68900173  0.49453624  0.12891336    -0.02570
C1231       C  0.65380879  0.48297146  0.14755803     0.04250
N1232       N  0.65003941  0.97177838  0.19157562     0.66760
H1233       H  0.59505012  0.47235033  0.13639879     0.15660
H1234       H  0.71725964  0.00994732  0.06949104     0.15370
N1235       N  0.66557327  0.49601132  0.01303602     0.74460
O1236       O  0.62177767  0.48063034  0.21315851    -0.38990
O1237       O  0.67179304  0.94845777  0.20701973    -0.38930
O1238       O  0.68898049  0.51977560  0.49704664    -0.39640
O1239       O  0.65388336  0.96952919  0.49011295    -0.39700
O1240       O  0.58718278  0.95585403  0.52457248    -0.79850
O1241       O  0.95189418  0.50526949  0.56131783    -0.79880
O1242       O  0.50361971  0.55812317  0.56251704    -0.79880
O1243       O  0.97473532  0.91582495  0.51928561    -0.79830
O1244       O  0.95076312  0.57845965  0.53645558    -0.79950
O1245       O  0.51584837  0.94766437  0.55639021    -0.79870
O1246       O  0.92037943  0.96537348  0.52298720    -0.79850
O1247       O  0.56420546  0.50434935  0.55798388    -0.79890
C1248       C  0.59089961  0.48145678  0.55188482     1.09840
C1249       C  0.92487934  0.48190705  0.55807407     1.09720
C1250       C  0.47852395  0.58317375  0.56082628     1.09860
C1251       C  0.49352650  0.91970573  0.55286127     1.09740
O1252       O  0.53372844  0.91778565  0.97390735    -0.79850
O1253       O  0.97382427  0.56289680  0.95543079    -0.79930
O1254       O  0.58000604  0.53398433  0.97311525    -0.79870
O1255       O  0.93558834  0.98725296  0.93513674    -0.79850
O1256       O  0.91563077  0.52608995  0.98242202    -0.79900
O1257       O  0.56400889  0.98086448  0.94756534    -0.79860
O1258       O  0.99111523  0.93754733  0.93134566    -0.79820
O1259       O  0.52700564  0.58251185  0.97789868    -0.79890
Co1260     Co  0.53998591  0.96742384  0.50270467     1.51530
Co1261     Co  0.96592279  0.53453421  0.50899781     1.51690
Co1262     Co  0.53837117  0.53910256  0.51520686     1.51570
Co1263     Co  0.95831206  0.95451412  0.97743777     1.51470
O1264       O  0.49785993  0.99668858  0.48799890    -1.41790
C1265       C  0.01545600  0.91419029  0.93986748     1.09760
C1266       C  0.00078681  0.58580205  0.95236643     1.09850
C1267       C  0.58434204  0.00990888  0.94517282     1.09790
C1268       C  0.91180394  0.51027464  0.94675860     1.09770
C1269       C  0.48592760  0.78685894  0.65891248     0.03410
C1270       C  0.48405813  0.75371277  0.63583091    -0.12740
C1271       C  0.48847167  0.71940344  0.65653100     0.00910
C1272       C  0.49644903  0.71833483  0.69998128    -0.11260
C1273       C  0.49704900  0.75107861  0.72453437     0.03410
C1274       C  0.49134729  0.78539029  0.70299700    -0.10680
H1275       H  0.47948109  0.75466102  0.60181383     0.09000
H1276       H  0.50192476  0.69142712  0.71379921     0.06530
H1277       H  0.49100244  0.81150585  0.71951847     0.06380
C1278       C  0.50803006  0.71354170  0.83874920     0.03410
C1279       C  0.51531301  0.74649630  0.86076474    -0.12740
C1280       C  0.51612913  0.78079021  0.83930143     0.00910
C1281       C  0.51205563  0.78206439  0.79502549    -0.11260
C1282       C  0.50361052  0.74931359  0.77189364     0.03410
C1283       C  0.50082130  0.71498892  0.79504480    -0.10680
H1284       H  0.51884162  0.74550696  0.89498521     0.09000
H1285       H  0.51487111  0.80916298  0.77974929     0.06530
H1286       H  0.49305066  0.68899743  0.78008543     0.06380
C1287       C  0.72410521  0.49878588  0.65423144     0.03410
C1288       C  0.72354066  0.51248491  0.69596557    -0.12740
C1289       C  0.75492300  0.51016074  0.72231401     0.00910
C1290       C  0.78844932  0.49760504  0.70419244    -0.11260
C1291       C  0.79098603  0.48819873  0.66105713     0.03410
C1292       C  0.75850348  0.48834632  0.63668893    -0.10680
H1293       H  0.69814866  0.52409811  0.70800638     0.09000
H1294       H  0.81277560  0.49422947  0.72350805     0.06530
H1295       H  0.76013216  0.47990497  0.60388026     0.06380
C1296       C  0.71558088  0.51553636  0.83574729     0.03410
C1297       C  0.74852831  0.51935235  0.85870933    -0.12740
C1298       C  0.78336215  0.52393689  0.83786437     0.00910
C1299       C  0.78438873  0.52581549  0.79306284    -0.11260
C1300       C  0.75203336  0.51758010  0.76919953     0.03410
C1301       C  0.71738891  0.51327810  0.79131046    -0.10680
H1302       H  0.74670774  0.51790723  0.89316424     0.09000
H1303       H  0.81083166  0.53231378  0.77701701     0.06530
H1304       H  0.69168343  0.50736707  0.77473193     0.06380
C1305       C  0.53653501  0.63508890  0.91107320    -0.11980
C1306       C  0.50188731  0.61673724  0.92045524     0.05020
C1307       C  0.96952348  0.62885959  0.89976613    -0.07270
C1308       C  0.97282146  0.65879972  0.87046154    -0.08010
C1309       C  0.50729841  0.67770828  0.86247254    -0.02570
C1310       C  0.53971569  0.66534343  0.88233891     0.04250
N1311       N  0.57584086  0.68340778  0.87403186     0.66760
H1312       H  0.56145154  0.62582500  0.92635675     0.15550
H1313       H  0.94786784  0.66907050  0.85602108     0.15370
N1314       N  0.93287436  0.61332626  0.91032119     0.74460
O1315       O  0.60034590  0.68405533  0.90245580    -0.38990
O1316       O  0.58442889  0.69632775  0.83739536    -0.38930
O1317       O  0.92096971  0.61377731  0.94836408    -0.39640
O1318       O  0.90998673  0.60639705  0.88107229    -0.39700
C1319       C  0.54795721  0.82473430  0.88882983    -0.11980
C1320       C  0.51690828  0.81553474  0.86385782     0.05020
C1321       C  0.98646337  0.83929226  0.86295348    -0.07270
C1322       C  0.98830559  0.87219304  0.88618837    -0.08010
C1323       C  0.51899347  0.88150234  0.91190336    -0.02570
C1324       C  0.54958012  0.85760893  0.91276331     0.04250
N1325       N  0.58256546  0.86637177  0.93670027     0.66760
H1326       H  0.57131232  0.80641739  0.88911296     0.15660
H1327       H  0.96426216  0.88960405  0.88601422     0.15370
N1328       N  0.95264999  0.82951014  0.84074903     0.74460
O1329       O  0.60006456  0.84048386  0.95404970    -0.38990
O1330       O  0.59756598  0.89886085  0.93484471    -0.38930
O1331       O  0.93919488  0.79636985  0.84213060    -0.39640
O1332       O  0.93338975  0.85480484  0.82489474    -0.39700
C1333       C  0.94918682  0.63039759  0.60652574    -0.11980
C1334       C  0.48156980  0.61661694  0.58771490     0.05020
C1335       C  0.51582639  0.63732219  0.59093739    -0.07270
C1336       C  0.51707028  0.67087443  0.61325082    -0.08010
C1337       C  0.48495088  0.68413353  0.63297552    -0.02570
C1338       C  0.95038293  0.66364476  0.62990120     0.04250
N1339       N  0.91636237  0.67611847  0.64943931     0.66760
H1340       H  0.92283280  0.61488942  0.60320483     0.15660
H1341       H  0.54336368  0.68679526  0.61519345     0.15370
N1342       N  0.54898769  0.62618700  0.56919309     0.74460
O1343       O  0.88498527  0.66497736  0.63564211    -0.38990
O1344       O  0.91715175  0.69577821  0.68244326    -0.38930
O1345       O  0.56477988  0.64786522  0.54175746    -0.39640
O1346       O  0.56598591  0.59828183  0.58256313    -0.39700
C1347       C  0.95625188  0.87240708  0.59606961    -0.11980
C1348       C  0.49135887  0.88918118  0.58525564     0.05020
C1349       C  0.52378994  0.87362525  0.60166539    -0.07270
C1350       C  0.52056908  0.84134515  0.62731913    -0.08010
C1351       C  0.48574064  0.82337569  0.63623828    -0.02570
C1352       C  0.95272652  0.83962462  0.62153019     0.04250
N1353       N  0.91577324  0.82389515  0.63182425     0.66760
H1354       H  0.93142184  0.88450184  0.58341773     0.15660
H1355       H  0.54579861  0.82880673  0.63831264     0.15370
N1356       N  0.56033305  0.88743784  0.58866163     0.74460
O1357       O  0.88743513  0.84319766  0.62649684    -0.38990
O1358       O  0.91086251  0.79091265  0.64606607    -0.38930
O1359       O  0.58454872  0.89447210  0.61646025    -0.39640
O1360       O  0.57083307  0.88355388  0.55050071    -0.39700
C1361       C  0.88064342  0.50275194  0.87731739    -0.11980
C1362       C  0.87980435  0.51740301  0.91859778     0.05020
C1363       C  0.84807759  0.03679959  0.93183115    -0.07270
C1364       C  0.81865460  0.04128950  0.90346638    -0.08010
C1365       C  0.81827941  0.52408770  0.86338215    -0.02570
C1366       C  0.85003688  0.50452635  0.85039463     0.04250
N1367       N  0.85080744  0.48362132  0.81179312     0.66760
H1368       H  0.90450959  0.48755298  0.86656229     0.15660
H1369       H  0.79486646  0.05668740  0.91398529     0.15370
N1370       N  0.84376094  0.04967070  0.97460677     0.74460
O1371       O  0.87926689  0.48617378  0.78746087    -0.38990
O1372       O  0.82606018  0.95822810  0.80561205    -0.38930
O1373       O  0.83214899  0.58192623  0.48103351    -0.39640
O1374       O  0.84349867  0.02644038  0.50524487    -0.39700
C1375       C  0.62168892  0.98390347  0.88561649    -0.11980
C1376       C  0.61502275  0.01403773  0.91270554     0.05020
C1377       C  0.63990734  0.54582554  0.91049875    -0.07270
C1378       C  0.67145801  0.54567173  0.88373823    -0.08010
C1379       C  0.67945805  0.51453312  0.85927361    -0.02570
C1380       C  0.65394752  0.98336277  0.85947413     0.04250
N1381       N  0.66107981  0.95038659  0.83543364     0.66760
H1382       H  0.60268423  0.95964313  0.88641506     0.15660
H1383       H  0.69070182  0.56983770  0.88303922     0.15370
N1384       N  0.63416173  0.57851347  0.93515191     0.74460
O1385       O  0.63414066  0.93028368  0.82196111    -0.38990
O1386       O  0.69382571  0.93888682  0.83167639    -0.38930
O1387       O  0.64058094  0.57792043  0.47452141    -0.39640
O1388       O  0.63267481  0.60970253  0.91622504    -0.39700
C1389       C  0.85950213  0.50282808  0.65067236    -0.11980
C1390       C  0.82791319  0.48011498  0.64081757     0.05020
C1391       C  0.83165185  0.95268993  0.60914909    -0.07270
C1392       C  0.86475584  0.95235327  0.58461780    -0.08010
C1393       C  0.89520979  0.47737169  0.59193646    -0.02570
C1394       C  0.89344860  0.50085735  0.62776388     0.04250
N1395       N  0.92543115  0.02276460  0.64142238     0.66760
H1396       H  0.85758417  0.52303303  0.67584115     0.15660
H1397       H  0.86638531  0.93266501  0.55887129     0.15370
N1398       N  0.80240730  0.42501129  0.60146059     0.74460
O1399       O  0.92118454  0.55434581  0.65772377    -0.38990
O1400       O  0.95641693  0.00758955  0.64542272    -0.38930
O1401       O  0.79745706  0.41274571  0.56441714    -0.39640
O1402       O  0.78363068  0.91028983  0.63216586    -0.39700
C1403       C  0.62200967  0.48006023  0.62192136    -0.11980
C1404       C  0.62496174  0.48432048  0.57760366     0.05020
C1405       C  0.66024804  0.99356311  0.55853414    -0.07270
C1406       C  0.69108582  0.00056725  0.58454731    -0.08010
C1407       C  0.68900174  0.49453619  0.62891335    -0.02570
C1408       C  0.65380880  0.48297144  0.64755802     0.04250
N1409       N  0.65003939  0.97177844  0.69157563     0.66760
H1410       H  0.59505012  0.47235034  0.63639879     0.15660
H1411       H  0.71725963  0.00994737  0.56949105     0.15370
N1412       N  0.66557327  0.49601128  0.51303601     0.74460
O1413       O  0.62177767  0.48063034  0.71315851    -0.38990
O1414       O  0.67179302  0.94845782  0.70701974    -0.38930
O1415       O  0.68898049  0.51977566  0.99704666    -0.39640
O1416       O  0.65388336  0.96952917  0.99011294    -0.39700
loop_ 
_geom_bond_atom_site_label_1 
_geom_bond_atom_site_label_2 
_geom_bond_distance 
_geom_bond_site_symmetry_2 
_ccdc_geom_bond_type 
O1          Co21   1.894       .  S
O1          C363   1.270       .  A
O2          Co22   1.983       .  S
O2           C10   1.259   1_545  A
O3          Co23   2.063       .  S
O3           C11   1.297   1_455  A
O4         Co201   2.009   1_554  S
O4          C720   1.267       .  A
O5          Co22   1.900       .  S
O5          C719   1.272       .  A
O6          Co21   1.989       .  S
O6           C12   1.263   1_455  A
O7         Co201   2.009   1_554  S
O7          C364   1.269       .  A
O8          Co23   2.074       .  S
O8            C9   1.298   1_545  A
C9          O355   1.270       .  A
C9          C165   1.475       .  S
C10         O361   1.269       .  A
C10         C154   1.493       .  S
C11         O713   1.272       .  A
C11          C95   1.478       .  S
C12         O712   1.267       .  A
C12         C109   1.482       .  S
O13        Co198   2.013       .  S
O13         C734   1.269       .  A
O14        Co199   1.963       .  S
O14          C27   1.243       .  A
O15        Co200   1.991       .  S
O15         C382   1.252       .  A
O16         Co24   1.968       .  S
O16         C383   1.263       .  A
O17        Co199   2.011       .  S
O17          C29   1.270       .  A
O18        Co198   1.965       .  S
O18          C28   1.246       .  A
O19         Co24   1.968       .  S
O19          C26   1.262       .  A
O20        Co200   1.993       .  S
O20         C735   1.253       .  A
Co21        O190   2.013   1_554  S
Co21        O195   1.965   1_554  S
Co21         O25   1.930   1_454  S
Co22        O191   1.963   1_554  S
Co22        O194   2.011   1_554  S
Co22       O1087   1.926   1_544  S
Co23        O192   1.991   1_554  S
Co23        O197   1.993   1_554  S
Co23        O379   2.246   1_444  S
Co24        O181   2.009       .  S
Co24        O184   2.009       .  S
Co24        O910   2.062       .  S
O25       Co1084   1.926   1_556  S
O25        Co377   2.246   1_656  S
O25        Co909   2.062       .  S
C26         O721   1.269       .  A
C26         C792   1.483       .  S
C27         O728   1.253       .  A
C27         C775   1.482       .  S
C28         O369   1.252       .  A
C28         C137   1.487       .  S
C29         O370   1.263   1_545  A
C29         C123   1.488       .  S
C30         C112   1.481       .  S
C30          C31   1.400       .  A
C30          C35   1.402       .  A
C31          C32   1.398       .  A
C31          H36   1.084       .  S
C32          C98   1.476       .  S
C32          C33   1.400       .  A
C33          C34   1.413       .  A
C33          H37   1.078   1_655  S
C34          C43   1.511   1_655  S
C34          C35   1.418       .  A
C35          H38   1.077       .  S
C39          C70   1.474       .  S
C39          C40   1.395       .  A
C39          C44   1.402       .  A
C40          C41   1.392       .  A
C40          H45   1.085       .  S
C41          C81   1.474       .  S
C41          C42   1.402       .  A
C42          C43   1.414       .  A
C42          H46   1.077       .  S
C43          C44   1.419       .  A
C44          H47   1.078   1_455  S
C48         C168   1.503       .  S
C48          C49   1.407   1_565  A
C48          C53   1.407       .  A
C49          C50   1.412       .  A
C49          H54   1.080       .  S
C50          C61   1.503       .  S
C50          C51   1.412   1_545  A
C51          C52   1.404       .  A
C51          H55   1.080       .  S
C52         C151   1.498       .  S
C52          C53   1.404       .  A
C53          H56   1.080       .  S
C57         C140   1.477       .  S
C57          C58   1.396       .  A
C57          C62   1.400       .  A
C58          C59   1.401       .  A
C58          H63   1.084       .  S
C59         C126   1.497       .  S
C59          C60   1.408       .  A
C60          C61   1.414       .  A
C60          H64   1.080       .  S
C61          C62   1.413       .  A
C62          H65   1.080       .  S
C66          C67   1.405       .  A
C66          C71   1.400       .  A
C66          H73   1.082       .  S
C67         C735   1.482       .  S
C67         C776   1.419   1_455  A
C68          C69   1.403       .  A
C68         C775   1.419       .  A
C68          N75   1.436       .  S
C69         C778   1.400       .  A
C69          H74   1.084       .  S
C70          C71   1.411       .  A
C70         C777   1.400   1_455  A
C71          N72   1.440       .  S
N72          O76   1.262       .  A
N72          O77   1.263       .  A
N75          O78   1.263       .  A
N75          O79   1.262       .  A
C80          C81   1.403       .  A
C80          C85   1.406       .  A
C80          H87   1.084       .  S
C81         C790   1.410   1_455  A
C82          C83   1.395       .  A
C82         C789   1.410       .  A
C82          N89   1.441       .  S
C83         C792   1.407       .  A
C83          H88   1.084       .  S
C84         C734   1.483       .  S
C84          C85   1.418       .  A
C84         C791   1.407   1_455  A
C85          N86   1.437       .  S
N86          O90   1.263       .  A
N86          O91   1.262       .  A
N89          O92   1.263       .  A
N89          O93   1.263       .  A
C94          C99   1.408       .  A
C94         C803   1.403       .  A
C94         H101   1.083       .  S
C95          C96   1.413   1_655  A
C95         C802   1.403       .  A
C96          C97   1.400       .  A
C96         N103   1.433       .  S
C97          C98   1.400   1_455  A
C97         H102   1.084       .  S
C98         C807   1.418       .  A
C99         C806   1.418       .  A
C99         N100   1.445       .  S
N100        O104   1.263       .  A
N100        O105   1.262       .  A
N103        O106   1.262       .  A
N103        O107   1.262       .  A
C108        C113   1.411       .  A
C108        C817   1.405       .  A
C108        H115   1.084       .  S
C109        C110   1.411   1_655  A
C109        C816   1.405       .  A
C110        C111   1.400       .  A
C110        N117   1.430       .  S
C111        C112   1.402   1_455  A
C111        H116   1.085       .  S
C112        C821   1.420       .  A
C113        C820   1.420       .  A
C113        N114   1.446       .  S
N114        O118   1.263       .  A
N114        O119   1.262       .  A
N117        O120   1.262       .  A
N117        O121   1.262       .  A
C122        C123   1.407       .  A
C122        C127   1.399       .  A
C122        H129   1.084   1_545  S
C123        C478   1.415       .  A
C124        C125   1.404       .  A
C124        C477   1.415       .  A
C124        N131   1.435       .  S
C125        C480   1.410       .  A
C125        H130   1.083       .  S
C126        C127   1.417       .  A
C126        C479   1.410       .  A
C127        N128   1.435   1_545  S
N128        O132   1.263       .  A
N128        O487   1.262       .  A
N131        O665   1.262       .  A
N131        O312   1.263       .  A
O133        N482   1.262       .  A
O134        N662   1.262       .  A
O135        N308   1.263   1_554  A
C136        C137   1.410       .  A
C136        C141   1.406       .  A
C136        H143   1.081       .  S
C137        C492   1.417       .  A
C138        C139   1.397       .  A
C138        C491   1.417       .  A
C138        N145   1.433       .  S
C139        C140   1.400       .  A
C139        H144   1.084       .  S
C140        C495   1.413   1_545  A
C141        C494   1.413       .  A
C141        N142   1.441       .  S
N142        O146   1.263       .  A
N142        O147   1.263       .  A
N145        O149   1.262       .  A
N145        O325   1.262       .  A
O148        N322   1.262       .  A
C150        C151   1.408   1_545  A
C150        C155   1.406       .  A
C150        H157   1.083       .  S
C151        C506   1.417       .  A
C152        C153   1.403       .  A
C152        C505   1.417       .  A
C152        N513   1.439       .  S
C153        C508   1.407       .  A
C153        H158   1.083       .  S
C154        C155   1.417   1_565  A
C154        C507   1.407       .  A
C155        N510   1.437       .  S
N156        C509   1.437       .  S
N156        O161   1.263       .  A
N156        O514   1.263       .  A
N159        C506   1.439       .  S
N159        O162   1.263       .  A
N159        O517   1.262       .  A
O160        N510   1.263       .  A
O163        N513   1.262       .  A
C164        C165   1.400       .  A
C164        C169   1.407       .  A
C164        H171   1.084       .  S
C165        C520   1.414       .  A
C166        C167   1.402       .  A
C166        C519   1.414       .  A
C166        N527   1.440       .  S
C167        C522   1.408       .  A
C167        H172   1.081       .  S
C168        C169   1.424       .  A
C168        C521   1.408   1_565  A
C169        N524   1.437       .  S
N170        C523   1.437       .  S
N170        O175   1.263       .  A
N170        O528   1.263       .  A
N173        C520   1.440       .  S
N173        O353   1.263   1_564  A
N173        O708   1.262   1_554  A
O174        N524   1.263       .  A
O176        N350   1.263   1_545  A
O177        N704   1.262       .  A
O178       Co198   1.894       .  S
O178        C540   1.270       .  A
O179       Co199   1.983       .  S
O179        C187   1.259   1_545  A
O180       Co200   2.063       .  S
O180        C188   1.297   1_455  A
O181        C897   1.267       .  A
O182       Co199   1.900       .  S
O182        C896   1.272       .  A
O183       Co198   1.989       .  S
O183        C189   1.263   1_455  A
O184        C541   1.269       .  A
O185       Co200   2.074       .  S
O185        C186   1.298   1_545  A
C186        O532   1.270       .  A
C186        C342   1.475       .  S
C187        O538   1.269       .  A
C187        C331   1.493       .  S
C188        O890   1.272       .  A
C188        C272   1.478       .  S
C189        O889   1.267       .  A
C189        C286   1.482       .  S
O190        C911   1.269       .  A
O191        C204   1.243       .  A
O192        C559   1.252       .  A
O193       Co201   1.968       .  S
O193        C560   1.263       .  A
O194        C206   1.270       .  A
O195        C205   1.246       .  A
O196       Co201   1.968       .  S
O196        C203   1.262       .  A
O197        C912   1.253       .  A
Co198       O202   1.930   1_455  S
Co199      O1264   1.926   1_545  S
Co200       O556   2.246   1_445  S
Co201       O733   2.062       .  S
O202      Co1261   1.926       .  S
O202       Co554   2.246   1_655  S
O202       Co732   2.062       .  S
C203        O898   1.269       .  A
C203        C969   1.483       .  S
C204        O905   1.253       .  A
C204        C952   1.482       .  S
C205        O546   1.252       .  A
C205        C314   1.487       .  S
C206        O547   1.263   1_545  A
C206        C300   1.488       .  S
C207        C289   1.481       .  S
C207        C208   1.400       .  A
C207        C212   1.402       .  A
C208        C209   1.398       .  A
C208        H213   1.084       .  S
C209        C275   1.476       .  S
C209        C210   1.400       .  A
C210        C211   1.413       .  A
C210        H214   1.078   1_655  S
C211        C220   1.511   1_655  S
C211        C212   1.418       .  A
C212        H215   1.077       .  S
C216        C247   1.474       .  S
C216        C217   1.395       .  A
C216        C221   1.402       .  A
C217        C218   1.392       .  A
C217        H222   1.085       .  S
C218        C258   1.474       .  S
C218        C219   1.402       .  A
C219        C220   1.414       .  A
C219        H223   1.077       .  S
C220        C221   1.419       .  A
C221        H224   1.078   1_455  S
C225        C345   1.503       .  S
C225        C226   1.407   1_565  A
C225        C230   1.407       .  A
C226        C227   1.412       .  A
C226        H231   1.080       .  S
C227        C238   1.503       .  S
C227        C228   1.412   1_545  A
C228        C229   1.404       .  A
C228        H232   1.080       .  S
C229        C328   1.498       .  S
C229        C230   1.404       .  A
C230        H233   1.080       .  S
C234        C317   1.477       .  S
C234        C235   1.396       .  A
C234        C239   1.400       .  A
C235        C236   1.401       .  A
C235        H240   1.084       .  S
C236        C303   1.497       .  S
C236        C237   1.408       .  A
C237        C238   1.414       .  A
C237        H241   1.080       .  S
C238        C239   1.413       .  A
C239        H242   1.080       .  S
C243        C244   1.405       .  A
C243        C248   1.400       .  A
C243        H250   1.082       .  S
C244        C912   1.482       .  S
C244        C953   1.419   1_455  A
C245        C952   1.419       .  A
C245        C246   1.403       .  A
C245        N252   1.436       .  S
C246        C955   1.400       .  A
C246        H251   1.084       .  S
C247        C954   1.400   1_455  A
C247        C248   1.411       .  A
C248        N249   1.440       .  S
N249        O253   1.262       .  A
N249        O254   1.263       .  A
N252        O255   1.263       .  A
N252        O256   1.262       .  A
C257        C258   1.403       .  A
C257        C262   1.406       .  A
C257        H264   1.084       .  S
C258        C967   1.410   1_455  A
C259        C966   1.410       .  A
C259        C260   1.395       .  A
C259        N266   1.441       .  S
C260        C969   1.407       .  A
C260        H265   1.084       .  S
C261        C911   1.483       .  S
C261        C968   1.407   1_455  A
C261        C262   1.418       .  A
C262        N263   1.437       .  S
N263        O267   1.263       .  A
N263        O268   1.262       .  A
N266        O269   1.263       .  A
N266        O270   1.263       .  A
C271        C980   1.403       .  A
C271        C276   1.408       .  A
C271        H278   1.083       .  S
C272        C979   1.403       .  A
C272        C273   1.413   1_655  A
C273        C274   1.400       .  A
C273        N280   1.433       .  S
C274        C275   1.400   1_455  A
C274        H279   1.084       .  S
C275        C984   1.418       .  A
C276        C983   1.418       .  A
C276        N277   1.445       .  S
N277        O281   1.263       .  A
N277        O282   1.262       .  A
N280        O283   1.262       .  A
N280        O284   1.262       .  A
C285        C994   1.405       .  A
C285        C290   1.411       .  A
C285        H292   1.084       .  S
C286        C993   1.405       .  A
C286        C287   1.411   1_655  A
C287        C288   1.400       .  A
C287        N294   1.430       .  S
C288        C289   1.402   1_455  A
C288        H293   1.085       .  S
C289        C998   1.420       .  A
C290        C997   1.420       .  A
C290        N291   1.446       .  S
N291        O295   1.263       .  A
N291        O296   1.262       .  A
N294        O297   1.262       .  A
N294        O298   1.262       .  A
C299        C300   1.407       .  A
C299        C304   1.399       .  A
C299        H306   1.084   1_545  S
C300        C655   1.415       .  A
C301        C654   1.415       .  A
C301        C302   1.404       .  A
C301        N308   1.435       .  S
C302        C657   1.410       .  A
C302        H307   1.083       .  S
C303        C656   1.410       .  A
C303        C304   1.417       .  A
C304        N305   1.435   1_545  S
N305        O309   1.263       .  A
N305        O664   1.262       .  A
N308        O488   1.262       .  A
O310        N659   1.262       .  A
O311        N485   1.262       .  A
C313        C314   1.410       .  A
C313        C318   1.406       .  A
C313        H320   1.081       .  S
C314        C669   1.417       .  A
C315        C668   1.417       .  A
C315        C316   1.397       .  A
C315        N322   1.433       .  S
C316        C317   1.400       .  A
C316        H321   1.084       .  S
C317        C672   1.413   1_545  A
C318        C671   1.413       .  A
C318        N319   1.441       .  S
N319        O323   1.263       .  A
N319        O324   1.263       .  A
N322        O326   1.262       .  A
C327        C328   1.408   1_545  A
C327        C332   1.406       .  A
C327        H334   1.083       .  S
C328        C683   1.417       .  A
C329        C682   1.417       .  A
C329        C330   1.403       .  A
C329        N690   1.439       .  S
C330        C685   1.407       .  A
C330        H335   1.083       .  S
C331        C684   1.407       .  A
C331        C332   1.417   1_565  A
C332        N687   1.437       .  S
N333        C686   1.437       .  S
N333        O691   1.263       .  A
N333        O338   1.263       .  A
N336        C683   1.439       .  S
N336        O339   1.263       .  A
N336        O694   1.262       .  A
O337        N687   1.263       .  A
O340        N690   1.262       .  A
C341        C342   1.400       .  A
C341        C346   1.407       .  A
C341        H348   1.084       .  S
C342        C697   1.414       .  A
C343        C696   1.414       .  A
C343        C344   1.402       .  A
C343        N704   1.440       .  S
C344        C699   1.408       .  A
C344        H349   1.081       .  S
C345        C698   1.408   1_565  A
C345        C346   1.424       .  A
C346        N701   1.437       .  S
N347        C700   1.437       .  S
N347        O705   1.263       .  A
N347        O352   1.263       .  A
N350        C697   1.440       .  S
N350        O531   1.262       .  A
O351        N701   1.263       .  A
O354        N527   1.262   1_556  A
O355       Co375   1.894       .  S
O356       Co376   1.983       .  S
O356        C364   1.259       .  A
O357       Co377   2.063       .  S
O357        C365   1.297   1_455  A
O358       Co555   2.009   1_554  S
O358       C1074   1.267       .  A
O359       Co376   1.900       .  S
O359       C1073   1.272       .  A
O360       Co375   1.989       .  S
O360        C366   1.263   1_455  A
O361       Co555   2.009   1_554  S
O362       Co377   2.074       .  S
O362        C363   1.298       .  A
C363        C519   1.475       .  S
C364        C508   1.493       .  S
C365       O1067   1.272       .  A
C365        C449   1.478       .  S
C366       O1066   1.267       .  A
C366        C463   1.482       .  S
O367       Co552   2.013       .  S
O367       C1088   1.269       .  A
O368       Co553   1.963       .  S
O368        C381   1.243       .  A
O369       Co554   1.991       .  S
O370       Co378   1.968       .  S
O371       Co553   2.011       .  S
O371        C383   1.270       .  A
O372       Co552   1.965       .  S
O372        C382   1.246   1_565  A
O373       Co378   1.968       .  S
O373        C380   1.262       .  A
O374       Co554   1.993       .  S
O374       C1089   1.253       .  A
Co375       O544   2.013   1_554  S
Co375       O549   1.965   1_554  S
Co375       O379   1.930   1_454  S
Co376       O545   1.963   1_554  S
Co376       O548   2.011   1_554  S
Co376       O733   1.926   1_554  S
Co377       O546   1.991   1_554  S
Co377       O551   1.993   1_554  S
Co378       O535   2.009       .  S
Co378       O538   2.009       .  S
Co378      O1264   2.062       .  S
O379       Co730   1.926   1_566  S
O379      Co1263   2.062       .  S
C380       O1075   1.269       .  A
C380       C1146   1.483       .  S
C381       O1082   1.253       .  A
C381       C1129   1.482       .  S
C382        C491   1.487       .  S
C383        C477   1.488       .  S
C384        C466   1.481       .  S
C384        C385   1.400       .  A
C384        C389   1.402       .  A
C385        C386   1.398       .  A
C385        H390   1.084       .  S
C386        C452   1.476       .  S
C386        C387   1.400       .  A
C387        C388   1.413       .  A
C387        H391   1.078   1_655  S
C388        C397   1.511   1_655  S
C388        C389   1.418       .  A
C389        H392   1.077       .  S
C393        C424   1.474       .  S
C393        C394   1.395       .  A
C393        C398   1.402       .  A
C394        C395   1.392       .  A
C394        H399   1.085       .  S
C395        C435   1.474       .  S
C395        C396   1.402       .  A
C396        C397   1.414       .  A
C396        H400   1.077       .  S
C397        C398   1.419       .  A
C398        H401   1.078   1_455  S
C402        C522   1.503       .  S
C402        C403   1.407       .  A
C402        C407   1.407       .  A
C403        C404   1.412       .  A
C403        H408   1.080       .  S
C404        C415   1.503       .  S
C404        C405   1.412       .  A
C405        C406   1.404       .  A
C405        H409   1.080       .  S
C406        C505   1.498       .  S
C406        C407   1.404       .  A
C407        H410   1.080       .  S
C411        C494   1.477       .  S
C411        C412   1.396       .  A
C411        C416   1.400       .  A
C412        C413   1.401       .  A
C412        H417   1.084       .  S
C413        C480   1.497       .  S
C413        C414   1.408       .  A
C414        C415   1.414       .  A
C414        H418   1.080       .  S
C415        C416   1.413       .  A
C416        H419   1.080       .  S
C420        C421   1.405       .  A
C420        C425   1.400       .  A
C420        H427   1.082       .  S
C421       C1089   1.482       .  S
C421       C1130   1.419   1_455  A
C422       C1129   1.419       .  A
C422        C423   1.403       .  A
C422        N429   1.436       .  S
C423       C1132   1.400       .  A
C423        H428   1.084       .  S
C424       C1131   1.400   1_455  A
C424        C425   1.411       .  A
C425        N426   1.440       .  S
N426        O430   1.262       .  A
N426        O431   1.263       .  A
N429        O432   1.263       .  A
N429        O433   1.262       .  A
C434        C435   1.403       .  A
C434        C439   1.406       .  A
C434        H441   1.084       .  S
C435       C1144   1.410   1_455  A
C436       C1143   1.410       .  A
C436        C437   1.395       .  A
C436        N443   1.441       .  S
C437       C1146   1.407       .  A
C437        H442   1.084       .  S
C438       C1088   1.483       .  S
C438       C1145   1.407   1_455  A
C438        C439   1.418       .  A
C439        N440   1.437       .  S
N440        O444   1.263       .  A
N440        O445   1.262       .  A
N443        O446   1.263       .  A
N443        O447   1.263       .  A
C448       C1157   1.403       .  A
C448        C453   1.408       .  A
C448        H455   1.083       .  S
C449       C1156   1.403       .  A
C449        C450   1.413   1_655  A
C450        C451   1.400       .  A
C450        N457   1.433       .  S
C451        C452   1.400   1_455  A
C451        H456   1.084       .  S
C452       C1161   1.418       .  A
C453       C1160   1.418       .  A
C453        N454   1.445       .  S
N454        O458   1.263       .  A
N454        O459   1.262       .  A
N457        O460   1.262       .  A
N457        O461   1.262       .  A
C462       C1171   1.405       .  A
C462        C467   1.411       .  A
C462        H469   1.084       .  S
C463       C1170   1.405       .  A
C463        C464   1.411   1_655  A
C464        C465   1.400       .  A
C464        N471   1.430       .  S
C465        C466   1.402   1_455  A
C465        H470   1.085       .  S
C466       C1175   1.420       .  A
C467       C1174   1.420       .  A
C467        N468   1.446       .  S
N468        O472   1.263       .  A
N468        O473   1.262       .  A
N471        O474   1.262       .  A
N471        O475   1.262       .  A
C476        C477   1.407       .  A
C476        C481   1.399       .  A
C476        H483   1.084       .  S
C478        C479   1.404       .  A
C478        N485   1.435       .  S
C479        H484   1.083       .  S
C480        C481   1.417       .  A
C481        N482   1.435       .  S
N482        O486   1.263       .  A
N485        O666   1.263       .  A
O489        N662   1.263   1_554  A
C490        C491   1.410   1_565  A
C490        C495   1.406       .  A
C490        H497   1.081       .  S
C492        C493   1.397       .  A
C492        N499   1.433       .  S
C493        C494   1.400       .  A
C493        H498   1.084       .  S
C495        N496   1.441       .  S
N496        O500   1.263       .  A
N496        O501   1.263       .  A
N499        O679   1.262       .  A
N499        O503   1.262       .  A
O502        N676   1.262       .  A
C504        C505   1.408       .  A
C504        C509   1.406       .  A
C504        H511   1.083       .  S
C506        C507   1.403       .  A
C507        H512   1.083       .  S
C508        C509   1.417       .  A
N510        O515   1.263       .  A
N513        O516   1.263       .  A
C518        C519   1.400       .  A
C518        C523   1.407       .  A
C518        H525   1.084       .  S
C520        C521   1.402   1_565  A
C521        H526   1.081       .  S
C522        C523   1.424       .  A
N524        O529   1.263       .  A
N527        O707   1.263   1_554  A
O530        N704   1.263       .  A
O532       Co552   1.894       .  S
O533       Co553   1.983       .  S
O533        C541   1.259       .  A
O534       Co554   2.063       .  S
O534        C542   1.297   1_455  A
O535       C1251   1.267       .  A
O536       Co553   1.900       .  S
O536       C1250   1.272       .  A
O537       Co552   1.989       .  S
O537        C543   1.263   1_455  A
O539       Co554   2.074       .  S
O539        C540   1.298       .  A
C540        C696   1.475       .  S
C541        C685   1.493       .  S
C542       O1244   1.272       .  A
C542        C626   1.478       .  S
C543       O1243   1.267       .  A
C543        C640   1.482       .  S
O544       C1265   1.269       .  A
O545        C558   1.243       .  A
O547       Co555   1.968       .  S
O548        C560   1.270       .  A
O549        C559   1.246   1_565  A
O550       Co555   1.968       .  S
O550        C557   1.262       .  A
O551       C1266   1.253       .  A
Co552       O556   1.930   1_455  S
Co553       O910   1.926       .  S
Co555      O1087   2.062       .  S
O556       Co907   1.926   1_565  S
O556      Co1086   2.062       .  S
C557       O1252   1.269       .  A
C557       C1323   1.483       .  S
C558       O1259   1.253       .  A
C558       C1306   1.482       .  S
C559        C668   1.487       .  S
C560        C654   1.488       .  S
C561        C643   1.481       .  S
C561        C562   1.400       .  A
C561        C566   1.402       .  A
C562        C563   1.398       .  A
C562        H567   1.084       .  S
C563        C629   1.476       .  S
C563        C564   1.400       .  A
C564        C565   1.413       .  A
C564        H568   1.078   1_655  S
C565        C574   1.511   1_655  S
C565        C566   1.418       .  A
C566        H569   1.077       .  S
C570        C601   1.474       .  S
C570        C571   1.395       .  A
C570        C575   1.402       .  A
C571        C572   1.392       .  A
C571        H576   1.085       .  S
C572        C612   1.474       .  S
C572        C573   1.402       .  A
C573        C574   1.414       .  A
C573        H577   1.077       .  S
C574        C575   1.419       .  A
C575        H578   1.078   1_455  S
C579        C699   1.503       .  S
C579        C580   1.407       .  A
C579        C584   1.407       .  A
C580        C581   1.412       .  A
C580        H585   1.080       .  S
C581        C592   1.503       .  S
C581        C582   1.412       .  A
C582        C583   1.404       .  A
C582        H586   1.080       .  S
C583        C682   1.498       .  S
C583        C584   1.404       .  A
C584        H587   1.080       .  S
C588        C671   1.477       .  S
C588        C589   1.396       .  A
C588        C593   1.400       .  A
C589        C590   1.401       .  A
C589        H594   1.084       .  S
C590        C657   1.497       .  S
C590        C591   1.408       .  A
C591        C592   1.414       .  A
C591        H595   1.080       .  S
C592        C593   1.413       .  A
C593        H596   1.080       .  S
C597        C598   1.405       .  A
C597        C602   1.400       .  A
C597        H604   1.082       .  S
C598       C1266   1.482       .  S
C598       C1307   1.419   1_455  A
C599       C1306   1.419       .  A
C599        C600   1.403       .  A
C599        N606   1.436       .  S
C600       C1309   1.400       .  A
C600        H605   1.084       .  S
C601       C1308   1.400   1_455  A
C601        C602   1.411       .  A
C602        N603   1.440       .  S
N603        O607   1.262       .  A
N603        O608   1.263       .  A
N606        O609   1.263       .  A
N606        O610   1.262       .  A
C611        C612   1.403       .  A
C611        C616   1.406       .  A
C611        H618   1.084       .  S
C612       C1321   1.410   1_455  A
C613       C1320   1.410       .  A
C613        C614   1.395       .  A
C613        N620   1.441       .  S
C614       C1323   1.407       .  A
C614        H619   1.084       .  S
C615       C1265   1.483       .  S
C615       C1322   1.407   1_455  A
C615        C616   1.418       .  A
C616        N617   1.437       .  S
N617        O621   1.263       .  A
N617        O622   1.262       .  A
N620        O623   1.263       .  A
N620        O624   1.263       .  A
C625       C1334   1.403       .  A
C625        C630   1.408       .  A
C625        H632   1.083       .  S
C626       C1333   1.403       .  A
C626        C627   1.413   1_655  A
C627        C628   1.400       .  A
C627        N634   1.433       .  S
C628        C629   1.400   1_455  A
C628        H633   1.084       .  S
C629       C1338   1.418       .  A
C630       C1337   1.418       .  A
C630        N631   1.445       .  S
N631        O635   1.263       .  A
N631        O636   1.262       .  A
N634        O637   1.262       .  A
N634        O638   1.262       .  A
C639       C1348   1.405       .  A
C639        C644   1.411       .  A
C639        H646   1.084       .  S
C640       C1347   1.405       .  A
C640        C641   1.411   1_655  A
C641        C642   1.400       .  A
C641        N648   1.430       .  S
C642        C643   1.402   1_455  A
C642        H647   1.085       .  S
C643       C1352   1.420       .  A
C644       C1351   1.420       .  A
C644        N645   1.446       .  S
N645        O649   1.263       .  A
N645        O650   1.262       .  A
N648        O651   1.262       .  A
N648        O652   1.262       .  A
C653        C654   1.407       .  A
C653        C658   1.399       .  A
C653        H660   1.084       .  S
C655        C656   1.404       .  A
C655        N662   1.435       .  S
C656        H661   1.083       .  S
C657        C658   1.417       .  A
C658        N659   1.435       .  S
N659        O663   1.263       .  A
C667        C668   1.410   1_565  A
C667        C672   1.406       .  A
C667        H674   1.081       .  S
C669        C670   1.397       .  A
C669        N676   1.433       .  S
C670        C671   1.400       .  A
C670        H675   1.084       .  S
C672        N673   1.441       .  S
N673        O677   1.263       .  A
N673        O678   1.263       .  A
N676        O680   1.262       .  A
C681        C682   1.408       .  A
C681        C686   1.406       .  A
C681        H688   1.083       .  S
C683        C684   1.403       .  A
C684        H689   1.083       .  S
C685        C686   1.417       .  A
N687        O692   1.263       .  A
N690        O693   1.263       .  A
C695        C696   1.400       .  A
C695        C700   1.407       .  A
C695        H702   1.084       .  S
C697        C698   1.402   1_565  A
C698        H703   1.081       .  S
C699        C700   1.424       .  A
N701        O706   1.263       .  A
O709       Co729   1.894       .  S
O709       C1071   1.270       .  A
O710       Co730   1.983       .  S
O710        C718   1.259   1_545  A
O711       Co731   2.063       .  S
O711        C719   1.297       .  A
O712       Co909   2.009   1_554  S
O713       Co730   1.900       .  S
O714       Co729   1.989       .  S
O714        C720   1.263       .  A
O715       Co909   2.009   1_554  S
O715       C1072   1.269       .  A
O716       Co731   2.074       .  S
O716        C717   1.298   1_545  A
C717       O1063   1.270       .  A
C717        C873   1.475       .  S
C718       O1069   1.269       .  A
C718        C862   1.493       .  S
C719        C803   1.478       .  S
C720        C817   1.482       .  S
O721       Co906   2.013       .  S
O722       Co907   1.963       .  S
O722        C735   1.243   1_655  A
O723       Co908   1.991       .  S
O723       C1090   1.252       .  A
O724       Co732   1.968       .  S
O724       C1091   1.263       .  A
O725       Co907   2.011       .  S
O725        C737   1.270       .  A
O726       Co906   1.965       .  S
O726        C736   1.246       .  A
O727       Co732   1.968       .  S
O727        C734   1.262   1_655  A
O728       Co908   1.993       .  S
Co729       O898   2.013   1_554  S
Co729       O903   1.965   1_554  S
Co729       O733   1.930   1_554  S
Co730       O899   1.963   1_554  S
Co730       O902   2.011   1_554  S
Co731       O900   1.991   1_554  S
Co731       O905   1.993   1_554  S
Co731      O1087   2.246   1_544  S
Co732       O889   2.009       .  S
Co732       O892   2.009       .  S
O733      Co1085   2.246   1_556  S
C736       O1077   1.252       .  A
C736        C845   1.487       .  S
C737       O1078   1.263   1_545  A
C737        C831   1.488       .  S
C738        C820   1.481       .  S
C738        C739   1.400       .  A
C738        C743   1.402       .  A
C739        C740   1.398       .  A
C739        H744   1.084       .  S
C740        C806   1.476       .  S
C740        C741   1.400       .  A
C741        C742   1.413       .  A
C741        H745   1.078       .  S
C742        C751   1.511       .  S
C742        C743   1.418       .  A
C743        H746   1.077       .  S
C747        C778   1.474       .  S
C747        C748   1.395       .  A
C747        C752   1.402       .  A
C748        C749   1.392       .  A
C748        H753   1.085       .  S
C749        C789   1.474       .  S
C749        C750   1.402       .  A
C750        C751   1.414       .  A
C750        H754   1.077       .  S
C751        C752   1.419       .  A
C752        H755   1.078       .  S
C756        C876   1.503       .  S
C756        C757   1.407   1_565  A
C756        C761   1.407       .  A
C757        C758   1.412       .  A
C757        H762   1.080       .  S
C758        C769   1.503       .  S
C758        C759   1.412   1_545  A
C759        C760   1.404       .  A
C759        H763   1.080       .  S
C760        C859   1.498       .  S
C760        C761   1.404       .  A
C761        H764   1.080       .  S
C765        C848   1.477       .  S
C765        C766   1.396       .  A
C765        C770   1.400       .  A
C766        C767   1.401       .  A
C766        H771   1.084       .  S
C767        C834   1.497       .  S
C767        C768   1.408       .  A
C768        C769   1.414       .  A
C768        H772   1.080       .  S
C769        C770   1.413       .  A
C770        H773   1.080       .  S
C774        C775   1.405       .  A
C774        C779   1.400       .  A
C774        H781   1.082       .  S
C776        C777   1.403       .  A
C776        N783   1.436       .  S
C777        H782   1.084       .  S
C778        C779   1.411       .  A
C779        N780   1.440       .  S
N780        O784   1.262       .  A
N780        O785   1.263       .  A
N783        O786   1.263       .  A
N783        O787   1.262       .  A
C788        C789   1.403       .  A
C788        C793   1.406       .  A
C788        H795   1.084       .  S
C790        C791   1.395       .  A
C790        N797   1.441       .  S
C791        H796   1.084       .  S
C792        C793   1.418       .  A
C793        N794   1.437       .  S
N794        O798   1.263       .  A
N794        O799   1.262       .  A
N797        O800   1.263       .  A
N797        O801   1.263       .  A
C802        C807   1.408       .  A
C802        H809   1.083       .  S
C803        C804   1.413       .  A
C804        C805   1.400       .  A
C804        N811   1.433       .  S
C805        C806   1.400       .  A
C805        H810   1.084       .  S
C807        N808   1.445       .  S
N808        O812   1.263       .  A
N808        O813   1.262       .  A
N811        O814   1.262       .  A
N811        O815   1.262       .  A
C816        C821   1.411       .  A
C816        H823   1.084       .  S
C817        C818   1.411       .  A
C818        C819   1.400       .  A
C818        N825   1.430       .  S
C819        C820   1.402       .  A
C819        H824   1.085       .  S
C821        N822   1.446       .  S
N822        O826   1.263       .  A
N822        O827   1.262       .  A
N825        O828   1.262       .  A
N825        O829   1.262       .  A
C830        C831   1.407       .  A
C830        C835   1.399       .  A
C830        H837   1.084   1_545  S
C831       C1186   1.415       .  A
C832       C1185   1.415       .  A
C832        C833   1.404       .  A
C832        N839   1.435       .  S
C833       C1188   1.410       .  A
C833        H838   1.083       .  S
C834       C1187   1.410       .  A
C834        C835   1.417       .  A
C835        N836   1.435   1_545  S
N836        O840   1.263       .  A
N836       O1195   1.262       .  A
N839       O1373   1.262       .  A
N839       O1020   1.263       .  A
O841       N1190   1.262       .  A
O842       N1370   1.262       .  A
O843       N1016   1.263   1_554  A
C844        C845   1.410       .  A
C844        C849   1.406       .  A
C844        H851   1.081       .  S
C845       C1200   1.417       .  A
C846       C1199   1.417       .  A
C846        C847   1.397       .  A
C846        N853   1.433       .  S
C847        C848   1.400       .  A
C847        H852   1.084       .  S
C848       C1203   1.413   1_545  A
C849       C1202   1.413       .  A
C849        N850   1.441       .  S
N850        O854   1.263       .  A
N850        O855   1.263       .  A
N853       O1033   1.262       .  A
N853        O857   1.262       .  A
O856       N1030   1.262       .  A
C858        C859   1.408   1_545  A
C858        C863   1.406       .  A
C858        H865   1.083       .  S
C859       C1214   1.417       .  A
C860       C1213   1.417       .  A
C860        C861   1.403       .  A
C860       N1221   1.439       .  S
C861       C1216   1.407       .  A
C861        H866   1.083       .  S
C862       C1215   1.407       .  A
C862        C863   1.417   1_565  A
C863       N1218   1.437       .  S
N864       C1217   1.437       .  S
N864       O1222   1.263       .  A
N864        O869   1.263       .  A
N867       C1214   1.439       .  S
N867        O870   1.263       .  A
N867       O1225   1.262       .  A
O868       N1218   1.263       .  A
O871       N1221   1.262       .  A
C872        C873   1.400       .  A
C872        C877   1.407       .  A
C872        H879   1.084       .  S
C873       C1228   1.414       .  A
C874       C1227   1.414       .  A
C874        C875   1.402       .  A
C874       N1235   1.440       .  S
C875       C1230   1.408       .  A
C875        H880   1.081       .  S
C876       C1229   1.408   1_565  A
C876        C877   1.424       .  A
C877       N1232   1.437       .  S
N878       C1231   1.437       .  S
N878       O1236   1.263       .  A
N878        O883   1.263       .  A
N881       C1228   1.440       .  S
N881       O1061   1.263   1_564  A
N881       O1416   1.262   1_554  A
O882       N1232   1.263       .  A
O884       N1058   1.263   1_545  A
O885       N1412   1.262       .  A
O886       Co906   1.894       .  S
O886       C1248   1.270       .  A
O887       Co907   1.983       .  S
O887        C895   1.259   1_545  A
O888       Co908   2.063       .  S
O888        C896   1.297       .  A
O890       Co907   1.900       .  S
O891       Co906   1.989       .  S
O891        C897   1.263       .  A
O892       C1249   1.269       .  A
O893       Co908   2.074       .  S
O893        C894   1.298   1_545  A
C894       O1240   1.270       .  A
C894       C1050   1.475       .  S
C895       O1246   1.269       .  A
C895       C1039   1.493       .  S
C896        C980   1.478       .  S
C897        C994   1.482       .  S
O899        C912   1.243   1_655  A
O900       C1267   1.252       .  A
O901       Co909   1.968       .  S
O901       C1268   1.263       .  A
O902        C914   1.270       .  A
O903        C913   1.246       .  A
O904       Co909   1.968       .  S
O904        C911   1.262   1_655  A
Co906       O910   1.930       .  S
Co908      O1264   2.246   1_545  S
O910      Co1262   2.246       .  S
C913       O1254   1.252       .  A
C913       C1022   1.487       .  S
C914       O1255   1.263   1_545  A
C914       C1008   1.488       .  S
C915        C997   1.481       .  S
C915        C916   1.400       .  A
C915        C920   1.402       .  A
C916        C917   1.398       .  A
C916        H921   1.084       .  S
C917        C983   1.476       .  S
C917        C918   1.400       .  A
C918        C919   1.413       .  A
C918        H922   1.078       .  S
C919        C928   1.511       .  S
C919        C920   1.418       .  A
C920        H923   1.077       .  S
C924        C955   1.474       .  S
C924        C925   1.395       .  A
C924        C929   1.402       .  A
C925        C926   1.392       .  A
C925        H930   1.085       .  S
C926        C966   1.474       .  S
C926        C927   1.402       .  A
C927        C928   1.414       .  A
C927        H931   1.077       .  S
C928        C929   1.419       .  A
C929        H932   1.078       .  S
C933       C1053   1.503       .  S
C933        C934   1.407   1_565  A
C933        C938   1.407       .  A
C934        C935   1.412       .  A
C934        H939   1.080       .  S
C935        C946   1.503       .  S
C935        C936   1.412   1_545  A
C936        C937   1.404       .  A
C936        H940   1.080       .  S
C937       C1036   1.498       .  S
C937        C938   1.404       .  A
C938        H941   1.080       .  S
C942       C1025   1.477       .  S
C942        C943   1.396       .  A
C942        C947   1.400       .  A
C943        C944   1.401       .  A
C943        H948   1.084       .  S
C944       C1011   1.497       .  S
C944        C945   1.408       .  A
C945        C946   1.414       .  A
C945        H949   1.080       .  S
C946        C947   1.413       .  A
C947        H950   1.080       .  S
C951        C952   1.405       .  A
C951        C956   1.400       .  A
C951        H958   1.082       .  S
C953        C954   1.403       .  A
C953        N960   1.436       .  S
C954        H959   1.084       .  S
C955        C956   1.411       .  A
C956        N957   1.440       .  S
N957        O961   1.262       .  A
N957        O962   1.263       .  A
N960        O963   1.263       .  A
N960        O964   1.262       .  A
C965        C966   1.403       .  A
C965        C970   1.406       .  A
C965        H972   1.084       .  S
C967        C968   1.395       .  A
C967        N974   1.441       .  S
C968        H973   1.084       .  S
C969        C970   1.418       .  A
C970        N971   1.437       .  S
N971        O975   1.263       .  A
N971        O976   1.262       .  A
N974        O977   1.263       .  A
N974        O978   1.263       .  A
C979        C984   1.408       .  A
C979        H986   1.083       .  S
C980        C981   1.413       .  A
C981        C982   1.400       .  A
C981        N988   1.433       .  S
C982        C983   1.400       .  A
C982        H987   1.084       .  S
C984        N985   1.445       .  S
N985        O989   1.263       .  A
N985        O990   1.262       .  A
N988        O991   1.262       .  A
N988        O992   1.262       .  A
C993        C998   1.411       .  A
C993       H1000   1.084       .  S
C994        C995   1.411       .  A
C995        C996   1.400       .  A
C995       N1002   1.430       .  S
C996        C997   1.402       .  A
C996       H1001   1.085       .  S
C998        N999   1.446       .  S
N999       O1003   1.263       .  A
N999       O1004   1.262       .  A
N1002      O1005   1.262       .  A
N1002      O1006   1.262       .  A
C1007      C1008   1.407       .  A
C1007      C1012   1.399       .  A
C1007      H1014   1.084   1_545  S
C1008      C1363   1.415       .  A
C1009      C1362   1.415       .  A
C1009      C1010   1.404       .  A
C1009      N1016   1.435       .  S
C1010      C1365   1.410       .  A
C1010      H1015   1.083       .  S
C1011      C1364   1.410       .  A
C1011      C1012   1.417       .  A
C1012      N1013   1.435   1_545  S
N1013      O1017   1.263       .  A
N1013      O1372   1.262       .  A
N1016      O1196   1.262       .  A
O1018      N1367   1.262       .  A
O1019      N1193   1.262       .  A
C1021      C1022   1.410       .  A
C1021      C1026   1.406       .  A
C1021      H1028   1.081       .  S
C1022      C1377   1.417       .  A
C1023      C1376   1.417       .  A
C1023      C1024   1.397       .  A
C1023      N1030   1.433       .  S
C1024      C1025   1.400       .  A
C1024      H1029   1.084       .  S
C1025      C1380   1.413   1_545  A
C1026      C1379   1.413       .  A
C1026      N1027   1.441       .  S
N1027      O1031   1.263       .  A
N1027      O1032   1.263       .  A
N1030      O1034   1.262       .  A
C1035      C1036   1.408   1_545  A
C1035      C1040   1.406       .  A
C1035      H1042   1.083       .  S
C1036      C1391   1.417       .  A
C1037      C1390   1.417       .  A
C1037      C1038   1.403       .  A
C1037      N1398   1.439       .  S
C1038      C1393   1.407       .  A
C1038      H1043   1.083       .  S
C1039      C1392   1.407       .  A
C1039      C1040   1.417   1_565  A
C1040      N1395   1.437       .  S
N1041      C1394   1.437       .  S
N1041      O1399   1.263       .  A
N1041      O1046   1.263       .  A
N1044      C1391   1.439       .  S
N1044      O1047   1.263       .  A
N1044      O1402   1.262       .  A
O1045      N1395   1.263       .  A
O1048      N1398   1.262       .  A
C1049      C1050   1.400       .  A
C1049      C1054   1.407       .  A
C1049      H1056   1.084       .  S
C1050      C1405   1.414       .  A
C1051      C1404   1.414       .  A
C1051      C1052   1.402       .  A
C1051      N1412   1.440       .  S
C1052      C1407   1.408       .  A
C1052      H1057   1.081       .  S
C1053      C1406   1.408   1_565  A
C1053      C1054   1.424       .  A
C1054      N1409   1.437       .  S
N1055      C1408   1.437       .  S
N1055      O1413   1.263       .  A
N1055      O1060   1.263       .  A
N1058      C1405   1.440       .  S
N1058      O1239   1.262       .  A
O1059      N1409   1.263       .  A
O1062      N1235   1.262   1_556  A
O1063     Co1083   1.894       .  S
O1064     Co1084   1.983       .  S
O1064      C1072   1.259       .  A
O1065     Co1085   2.063       .  S
O1065      C1073   1.297       .  A
O1066     Co1263   2.009   1_554  S
O1067     Co1084   1.900       .  S
O1068     Co1083   1.989       .  S
O1068      C1074   1.263       .  A
O1069     Co1263   2.009   1_554  S
O1070     Co1085   2.074       .  S
O1070      C1071   1.298       .  A
C1071      C1227   1.475       .  S
C1072      C1216   1.493       .  S
C1073      C1157   1.478       .  S
C1074      C1171   1.482       .  S
O1075     Co1260   2.013       .  S
O1076     Co1261   1.963       .  S
O1076      C1089   1.243   1_655  A
O1077     Co1262   1.991       .  S
O1078     Co1086   1.968       .  S
O1079     Co1261   2.011       .  S
O1079      C1091   1.270       .  A
O1080     Co1260   1.965       .  S
O1080      C1090   1.246   1_565  A
O1081     Co1086   1.968       .  S
O1081      C1088   1.262   1_655  A
O1082     Co1262   1.993       .  S
Co1083     O1252   2.013   1_554  S
Co1083     O1257   1.965   1_554  S
Co1083     O1087   1.930   1_554  S
Co1084     O1253   1.963   1_554  S
Co1084     O1256   2.011   1_554  S
Co1085     O1254   1.991   1_554  S
Co1085     O1259   1.993   1_554  S
Co1086     O1243   2.009       .  S
Co1086     O1246   2.009       .  S
C1090      C1199   1.487       .  S
C1091      C1185   1.488       .  S
C1092      C1174   1.481       .  S
C1092      C1093   1.400       .  A
C1092      C1097   1.402       .  A
C1093      C1094   1.398       .  A
C1093      H1098   1.084       .  S
C1094      C1160   1.476       .  S
C1094      C1095   1.400       .  A
C1095      C1096   1.413       .  A
C1095      H1099   1.078       .  S
C1096      C1105   1.511       .  S
C1096      C1097   1.418       .  A
C1097      H1100   1.077       .  S
C1101      C1132   1.474       .  S
C1101      C1102   1.395       .  A
C1101      C1106   1.402       .  A
C1102      C1103   1.392       .  A
C1102      H1107   1.085       .  S
C1103      C1143   1.474       .  S
C1103      C1104   1.402       .  A
C1104      C1105   1.414       .  A
C1104      H1108   1.077       .  S
C1105      C1106   1.419       .  A
C1106      H1109   1.078       .  S
C1110      C1230   1.503       .  S
C1110      C1111   1.407       .  A
C1110      C1115   1.407       .  A
C1111      C1112   1.412       .  A
C1111      H1116   1.080       .  S
C1112      C1123   1.503       .  S
C1112      C1113   1.412       .  A
C1113      C1114   1.404       .  A
C1113      H1117   1.080       .  S
C1114      C1213   1.498       .  S
C1114      C1115   1.404       .  A
C1115      H1118   1.080       .  S
C1119      C1202   1.477       .  S
C1119      C1120   1.396       .  A
C1119      C1124   1.400       .  A
C1120      C1121   1.401       .  A
C1120      H1125   1.084       .  S
C1121      C1188   1.497       .  S
C1121      C1122   1.408       .  A
C1122      C1123   1.414       .  A
C1122      H1126   1.080       .  S
C1123      C1124   1.413       .  A
C1124      H1127   1.080       .  S
C1128      C1129   1.405       .  A
C1128      C1133   1.400       .  A
C1128      H1135   1.082       .  S
C1130      C1131   1.403       .  A
C1130      N1137   1.436       .  S
C1131      H1136   1.084       .  S
C1132      C1133   1.411       .  A
C1133      N1134   1.440       .  S
N1134      O1138   1.262       .  A
N1134      O1139   1.263       .  A
N1137      O1140   1.263       .  A
N1137      O1141   1.262       .  A
C1142      C1143   1.403       .  A
C1142      C1147   1.406       .  A
C1142      H1149   1.084       .  S
C1144      C1145   1.395       .  A
C1144      N1151   1.441       .  S
C1145      H1150   1.084       .  S
C1146      C1147   1.418       .  A
C1147      N1148   1.437       .  S
N1148      O1152   1.263       .  A
N1148      O1153   1.262       .  A
N1151      O1154   1.263       .  A
N1151      O1155   1.263       .  A
C1156      C1161   1.408       .  A
C1156      H1163   1.083       .  S
C1157      C1158   1.413       .  A
C1158      C1159   1.400       .  A
C1158      N1165   1.433       .  S
C1159      C1160   1.400       .  A
C1159      H1164   1.084       .  S
C1161      N1162   1.445       .  S
N1162      O1166   1.263       .  A
N1162      O1167   1.262       .  A
N1165      O1168   1.262       .  A
N1165      O1169   1.262       .  A
C1170      C1175   1.411       .  A
C1170      H1177   1.084       .  S
C1171      C1172   1.411       .  A
C1172      C1173   1.400       .  A
C1172      N1179   1.430       .  S
C1173      C1174   1.402       .  A
C1173      H1178   1.085       .  S
C1175      N1176   1.446       .  S
N1176      O1180   1.263       .  A
N1176      O1181   1.262       .  A
N1179      O1182   1.262       .  A
N1179      O1183   1.262       .  A
C1184      C1185   1.407       .  A
C1184      C1189   1.399       .  A
C1184      H1191   1.084       .  S
C1186      C1187   1.404       .  A
C1186      N1193   1.435       .  S
C1187      H1192   1.083       .  S
C1188      C1189   1.417       .  A
C1189      N1190   1.435       .  S
N1190      O1194   1.263       .  A
N1193      O1374   1.263       .  A
O1197      N1370   1.263   1_554  A
C1198      C1199   1.410   1_565  A
C1198      C1203   1.406       .  A
C1198      H1205   1.081       .  S
C1200      C1201   1.397       .  A
C1200      N1207   1.433       .  S
C1201      C1202   1.400       .  A
C1201      H1206   1.084       .  S
C1203      N1204   1.441       .  S
N1204      O1208   1.263       .  A
N1204      O1209   1.263       .  A
N1207      O1387   1.262       .  A
N1207      O1211   1.262       .  A
O1210      N1384   1.262       .  A
C1212      C1213   1.408       .  A
C1212      C1217   1.406       .  A
C1212      H1219   1.083       .  S
C1214      C1215   1.403       .  A
C1215      H1220   1.083       .  S
C1216      C1217   1.417       .  A
N1218      O1223   1.263       .  A
N1221      O1224   1.263       .  A
C1226      C1227   1.400       .  A
C1226      C1231   1.407       .  A
C1226      H1233   1.084       .  S
C1228      C1229   1.402   1_565  A
C1229      H1234   1.081       .  S
C1230      C1231   1.424       .  A
N1232      O1237   1.263       .  A
N1235      O1415   1.263   1_554  A
O1238      N1412   1.263       .  A
O1240     Co1260   1.894       .  S
O1241     Co1261   1.983       .  S
O1241      C1249   1.259       .  A
O1242     Co1262   2.063       .  S
O1242      C1250   1.297       .  A
O1244     Co1261   1.900       .  S
O1245     Co1260   1.989       .  S
O1245      C1251   1.263       .  A
O1247     Co1262   2.074       .  S
O1247      C1248   1.298       .  A
C1248      C1404   1.475       .  S
C1249      C1393   1.493       .  S
C1250      C1334   1.478       .  S
C1251      C1348   1.482       .  S
O1253      C1266   1.243   1_655  A
O1255     Co1263   1.968       .  S
O1256      C1268   1.270       .  A
O1257      C1267   1.246   1_565  A
O1258     Co1263   1.968       .  S
O1258      C1265   1.262   1_655  A
Co1260     O1264   1.930       .  S
C1267      C1376   1.487       .  S
C1268      C1362   1.488       .  S
C1269      C1351   1.481       .  S
C1269      C1270   1.400       .  A
C1269      C1274   1.402       .  A
C1270      C1271   1.398       .  A
C1270      H1275   1.084       .  S
C1271      C1337   1.476       .  S
C1271      C1272   1.400       .  A
C1272      C1273   1.413       .  A
C1272      H1276   1.078       .  S
C1273      C1282   1.511       .  S
C1273      C1274   1.418       .  A
C1274      H1277   1.077       .  S
C1278      C1309   1.474       .  S
C1278      C1279   1.395       .  A
C1278      C1283   1.402       .  A
C1279      C1280   1.392       .  A
C1279      H1284   1.085       .  S
C1280      C1320   1.474       .  S
C1280      C1281   1.402       .  A
C1281      C1282   1.414       .  A
C1281      H1285   1.077       .  S
C1282      C1283   1.419       .  A
C1283      H1286   1.078       .  S
C1287      C1407   1.503       .  S
C1287      C1288   1.407       .  A
C1287      C1292   1.407       .  A
C1288      C1289   1.412       .  A
C1288      H1293   1.080       .  S
C1289      C1300   1.503       .  S
C1289      C1290   1.412       .  A
C1290      C1291   1.404       .  A
C1290      H1294   1.080       .  S
C1291      C1390   1.498       .  S
C1291      C1292   1.404       .  A
C1292      H1295   1.080       .  S
C1296      C1379   1.477       .  S
C1296      C1297   1.396       .  A
C1296      C1301   1.400       .  A
C1297      C1298   1.401       .  A
C1297      H1302   1.084       .  S
C1298      C1365   1.497       .  S
C1298      C1299   1.408       .  A
C1299      C1300   1.414       .  A
C1299      H1303   1.080       .  S
C1300      C1301   1.413       .  A
C1301      H1304   1.080       .  S
C1305      C1306   1.405       .  A
C1305      C1310   1.400       .  A
C1305      H1312   1.082       .  S
C1307      C1308   1.403       .  A
C1307      N1314   1.436       .  S
C1308      H1313   1.084       .  S
C1309      C1310   1.411       .  A
C1310      N1311   1.440       .  S
N1311      O1315   1.262       .  A
N1311      O1316   1.263       .  A
N1314      O1317   1.263       .  A
N1314      O1318   1.262       .  A
C1319      C1320   1.403       .  A
C1319      C1324   1.406       .  A
C1319      H1326   1.084       .  S
C1321      C1322   1.395       .  A
C1321      N1328   1.441       .  S
C1322      H1327   1.084       .  S
C1323      C1324   1.418       .  A
C1324      N1325   1.437       .  S
N1325      O1329   1.263       .  A
N1325      O1330   1.262       .  A
N1328      O1331   1.263       .  A
N1328      O1332   1.263       .  A
C1333      C1338   1.408       .  A
C1333      H1340   1.083       .  S
C1334      C1335   1.413       .  A
C1335      C1336   1.400       .  A
C1335      N1342   1.433       .  S
C1336      C1337   1.400       .  A
C1336      H1341   1.084       .  S
C1338      N1339   1.445       .  S
N1339      O1343   1.263       .  A
N1339      O1344   1.262       .  A
N1342      O1345   1.262       .  A
N1342      O1346   1.262       .  A
C1347      C1352   1.411       .  A
C1347      H1354   1.084       .  S
C1348      C1349   1.411       .  A
C1349      C1350   1.400       .  A
C1349      N1356   1.430       .  S
C1350      C1351   1.402       .  A
C1350      H1355   1.085       .  S
C1352      N1353   1.446       .  S
N1353      O1357   1.263       .  A
N1353      O1358   1.262       .  A
N1356      O1359   1.262       .  A
N1356      O1360   1.262       .  A
C1361      C1362   1.407       .  A
C1361      C1366   1.399       .  A
C1361      H1368   1.084       .  S
C1363      C1364   1.404       .  A
C1363      N1370   1.435       .  S
C1364      H1369   1.083       .  S
C1365      C1366   1.417       .  A
C1366      N1367   1.435       .  S
N1367      O1371   1.263       .  A
C1375      C1376   1.410   1_565  A
C1375      C1380   1.406       .  A
C1375      H1382   1.081       .  S
C1377      C1378   1.397       .  A
C1377      N1384   1.433       .  S
C1378      C1379   1.400       .  A
C1378      H1383   1.084       .  S
C1380      N1381   1.441       .  S
N1381      O1385   1.263       .  A
N1381      O1386   1.263       .  A
N1384      O1388   1.262       .  A
C1389      C1390   1.408       .  A
C1389      C1394   1.406       .  A
C1389      H1396   1.083       .  S
C1391      C1392   1.403       .  A
C1392      H1397   1.083       .  S
C1393      C1394   1.417       .  A
N1395      O1400   1.263       .  A
N1398      O1401   1.263       .  A
C1403      C1404   1.400       .  A
C1403      C1408   1.407       .  A
C1403      H1410   1.084       .  S
C1405      C1406   1.402   1_565  A
C1406      H1411   1.081       .  S
C1407      C1408   1.424       .  A
N1409      O1414   1.263       .  A
