geometry optimzed in LAMMPS
_audit_creation_date              2020-12-01 
_audit_creation_method            'lammps2cif' 
_symmetry_space_group_name_H-M    'P1' 
_symmetry_Int_Tables_number       1 
_symmetry_cell_setting            triclinic 
loop_ 
_symmetry_equiv_pos_as_xyz 
  x,y,z 
_cell_length_a                    25.77845361 
_cell_length_b                    25.27663486211046 
_cell_length_c                    73.07141213943004 
_cell_angle_alpha                 89.10220678000067 
_cell_angle_beta                  91.5107593761275 
_cell_angle_gamma                 89.63131540189262 
loop_ 
_atom_site_label 
_atom_site_type_symbol 
_atom_site_fract_x 
_atom_site_fract_y 
_atom_site_fract_z 
_atom_site_charge 
O1          O  0.25276600  0.29263594  0.72226597    -0.73700
O2          O  0.33860332  0.18549845  0.75125655    -0.74700
O3          O  0.25475592  0.18031518  0.72508512    -0.63300
O4          O  0.33683589  0.29819833  0.74834313    -0.71700
O5          O  0.28264514  0.30097715  0.77131420    -0.71300
O6          O  0.20028028  0.18497169  0.74794676    -0.62500
O7          O  0.28375772  0.18890642  0.77403821    -0.73800
O8          O  0.19924256  0.29697905  0.74550062    -0.73800
Cu9        Cu  0.29780360  0.23907871  0.73594898     1.04600
Cu10       Cu  0.23955523  0.24304711  0.76044050     1.04300
C11         C  0.21229307  0.31179831  0.72949046     0.92500
C12         C  0.32500550  0.17033965  0.76721897     0.91600
C13         C  0.21414618  0.16397585  0.73302825     0.83800
C14         C  0.32314184  0.31794882  0.76352504     0.90100
O15         O  0.83095708  0.29607756  0.75018746    -0.73700
O16         O  0.75911652  0.18571315  0.78017029    -0.74700
O17         O  0.83258270  0.18413775  0.75214600    -0.63300
O18         O  0.75757483  0.29840173  0.77824632    -0.71700
O19         O  0.69630240  0.29602487  0.75637328    -0.71300
O20         O  0.77098418  0.18110374  0.73049319    -0.62500
O21         O  0.69756858  0.18321829  0.75841784    -0.75000
O22         O  0.76962158  0.29331712  0.72844273    -0.73800
Cu23       Cu  0.79726037  0.24114355  0.76592224     1.04600
Cu24       Cu  0.73123541  0.23831331  0.74275529     1.04300
C25         C  0.81226054  0.31211014  0.73466023     0.92500
C26         C  0.71684614  0.16652843  0.77376923     0.91600
C27         C  0.81430703  0.16462485  0.73729343     0.83800
C28         C  0.71508398  0.31594251  0.77107935     0.90100
C29         C  0.00166146  0.49226069  0.67557371     0.79500
N30         N  0.04806968  0.47036964  0.68117235    -0.78800
C31         C  0.04994854  0.43126309  0.69408600     0.81900
N32         N  0.00568355  0.41439762  0.70161624    -0.78800
C33         C  0.95929010  0.43560344  0.69631205     0.82000
N34         N  0.95710797  0.47468458  0.68327743    -0.80500
C35         C  0.00566106  0.97430865  0.68462199     0.79500
N36         N  0.05307039  0.99394749  0.68967873    -0.78800
C37         C  0.05599506  0.03543170  0.70128639     0.81900
N38         N  0.01196828  0.05581082  0.70803020    -0.78800
C39         C  0.96496595  0.03634198  0.70320405     0.82000
N40         N  0.96163550  0.99575391  0.69133615    -0.80500
C41         C  0.51684318  0.50767553  0.81793653     0.79500
N42         N  0.47235559  0.48976370  0.80961799    -0.78800
C43         C  0.47483460  0.45639519  0.79521765     0.81900
N44         N  0.52172501  0.44039287  0.78942060    -0.78800
C45         C  0.56604465  0.45743616  0.79763576     0.82000
N46         N  0.56358172  0.49086222  0.81191188    -0.80500
C47         C  0.51928030  0.97667319  0.82437670     0.79500
N48         N  0.47495687  0.99906498  0.81694916    -0.78800
C49         C  0.47767051  0.03864929  0.80422228     0.81900
N50         N  0.52455969  0.05598715  0.79898925    -0.78800
C51         C  0.56877298  0.03469709  0.80634715     0.82000
N52         N  0.56623087  0.99485327  0.81895643    -0.80500
C53         C  0.98752027  0.78823389  0.63839622     0.85700
C54         C  0.02851777  0.79205262  0.62368254    -0.54500
C55         C  0.03081736  0.74993840  0.61228125     0.08700
C56         C  0.98813342  0.70833352  0.61587686     0.19600
C57         C  0.93596642  0.78039091  0.62787231    -0.55200
C58         C  0.93604990  0.73942497  0.61588675     0.08800
C59         C  0.99694471  0.73368570  0.64779394    -0.54800
C60         C  0.99740160  0.69205954  0.63612868     0.09300
H61         H  0.05467733  0.82541793  0.62270251     0.13800
H62         H  0.98830947  0.67443003  0.60639418    -0.00400
H63         H  0.90194674  0.80504655  0.62975244     0.14200
H64         H  0.99934231  0.72675942  0.66245988     0.13900
O65         O  0.43116963  0.05527221  0.49694810    -0.73700
O66         O  0.53745662  0.96560913  0.52416729    -0.74700
O67         O  0.54078449  0.04934947  0.49767762    -0.63300
O68         O  0.42688045  0.97159490  0.52312137    -0.71700
O69         O  0.42373637  0.91546138  0.50008756    -0.71300
O70         O  0.53736157  0.99263341  0.47489469    -0.62500
O71         O  0.53454679  0.90891814  0.50134283    -0.75000
O72         O  0.42748743  0.99921597  0.47403822    -0.73800
Cu73       Cu  0.48427023  0.01238138  0.51127894     1.04600
Cu74       Cu  0.48079862  0.95184541  0.48687246     1.04300
C75         C  0.41244702  0.04212461  0.48129080     0.92500
C76         C  0.55342134  0.92314286  0.51686708     0.91600
C77         C  0.55608072  0.03429099  0.48205749     0.83800
C78         C  0.40639249  0.93181592  0.51521882     0.90100
O79         O  0.52538884  0.42462948  0.49533858    -0.73700
O80         O  0.41259920  0.50693409  0.51905163    -0.74700
O81         O  0.41551427  0.42970269  0.49178535    -0.63300
O82         O  0.52337574  0.50143974  0.52286308    -0.71700
O83         O  0.53028538  0.56305904  0.50117539    -0.71300
O84         O  0.42211168  0.49087453  0.46986037    -0.62500
O85         O  0.41919263  0.56846831  0.49736467    -0.75000
O86         O  0.53187575  0.48625419  0.47360094    -0.73800
Cu87       Cu  0.46899810  0.46358243  0.50800689     1.04600
Cu88       Cu  0.47606360  0.52958004  0.48480978     1.04300
C89         C  0.54663397  0.44227538  0.48087943     0.92500
C90         C  0.39716677  0.55051687  0.51165158     0.91600
C91         C  0.40189492  0.44840992  0.47602742     0.83800
C92         C  0.54489967  0.54313450  0.51670046     0.90100
C93         C  0.21304128  0.24114293  0.42823151     0.79500
N94         N  0.23350731  0.28967556  0.43178242    -0.78800
C95         C  0.27733383  0.29384035  0.44231553     0.81900
N96         N  0.30024405  0.24981371  0.44952642    -0.78800
C97         C  0.28049406  0.20133249  0.44631521     0.82000
N98         N  0.23692571  0.19681071  0.43549349    -0.80500
C99         C  0.72872095  0.24324205  0.42781031     0.79500
N100        N  0.71091992  0.19580341  0.43410913    -0.78800
C101        C  0.67271242  0.19465753  0.44658169     0.81900
N102        N  0.65288509  0.24053183  0.45268534    -0.78800
C103        C  0.67007302  0.28768087  0.44647136     0.82000
N104        N  0.70850335  0.28919482  0.43414171    -0.80500
C105        C  0.19635465  0.74124092  0.55989111     0.79500
N106        N  0.22024082  0.78798847  0.55592271    -0.78800
C107        C  0.25994892  0.78886819  0.54404964     0.81900
N108        N  0.27591194  0.74354907  0.53649835    -0.78800
C109        C  0.25333133  0.69692907  0.54046037     0.82000
N110        N  0.21356220  0.69538439  0.55235899    -0.80500
C111        C  0.75089681  0.72303343  0.57006154     0.79500
N112        N  0.72896849  0.77008273  0.56436612    -0.78800
C113        C  0.68586701  0.77022215  0.55319461     0.81900
N114        N  0.66577851  0.72395486  0.54760166    -0.78800
C115        C  0.68705596  0.67726531  0.55306629     0.82000
N116        N  0.72987723  0.67644710  0.56435257    -0.80500
O117        O  0.80960185  0.68549735  0.24861509    -0.73700
O118        O  0.72700915  0.80706143  0.22700631    -0.74700
O119        O  0.81624004  0.79726514  0.25025297    -0.63300
O120        O  0.72029134  0.69416786  0.22558809    -0.71700
O121        O  0.67302864  0.69450476  0.25037299    -0.71300
O122        O  0.76819052  0.79676240  0.27492046    -0.62500
O123        O  0.67932845  0.80596885  0.25175852    -0.75000
O124        O  0.76191261  0.68475892  0.27336701    -0.73800
Cu125      Cu  0.77005984  0.74602947  0.23700373     1.04600
Cu126      Cu  0.71887180  0.74549243  0.26341280     1.04300
C127        C  0.79902662  0.66568811  0.26427247     0.92500
C128        C  0.69022118  0.82638843  0.23624654     0.91600
C129        C  0.80728785  0.81383744  0.26630626     0.83800
C130        C  0.68146043  0.67717580  0.23442806     0.90100
O131        O  0.24659774  0.70769770  0.22108167    -0.73700
O132        O  0.17527934  0.81463981  0.25203958    -0.74700
O133        O  0.25271565  0.81959955  0.22551596    -0.63300
O134        O  0.16873750  0.70155444  0.24791754    -0.71700
O135        O  0.22775744  0.69073671  0.27031875    -0.71300
O136        O  0.31161508  0.80716740  0.24784829    -0.62500
O137        O  0.23429815  0.80249309  0.27441258    -0.75000
O138        O  0.30534270  0.69499803  0.24354215    -0.73800
Cu139      Cu  0.20855886  0.76116051  0.23589287     1.04600
Cu140      Cu  0.27185217  0.74837129  0.25975906     1.04300
C141        C  0.28744740  0.68459530  0.22752769     0.92500
C142        C  0.19409400  0.82644033  0.26780855     0.91600
C143        C  0.29517531  0.83277209  0.23359489     0.83800
C144        C  0.18524761  0.67706251  0.26243633     0.90100
C145        C  0.99695092  0.01791314  0.31671782     0.79500
N146        N  0.95414902  0.99082565  0.31092264    -0.78800
C147        C  0.95945204  0.94633279  0.30096567     0.81900
N148        N  0.00724177  0.92892138  0.29684692    -0.78800
C149        C  0.05004728  0.95473646  0.30272714     0.82000
N150        N  0.04517194  0.99949486  0.31263183    -0.80500
C151        C  0.48357082  0.47796375  0.18532325     0.79500
N152        N  0.52788596  0.50131612  0.19166498    -0.78800
C153        C  0.52552995  0.54837356  0.20024552     0.81900
N154        N  0.47910867  0.57202301  0.20246138    -0.78800
C155        C  0.43477408  0.54983155  0.19611846     0.82000
N156        N  0.43675805  0.50252510  0.18748448    -0.80500
C157        C  0.00130755  0.46322940  0.31046377     0.79500
N158        N  0.95500331  0.48200510  0.30362943    -0.78800
C159        C  0.95374007  0.52059181  0.29053828     0.81900
N160        N  0.99853238  0.54169221  0.28481169    -0.78800
C161        C  0.04485909  0.52487038  0.29178778     0.82000
N162        N  0.04662652  0.48528331  0.30475088    -0.80500
C163        C  0.49382835  0.03442637  0.18822965     0.79500
N164        N  0.53902307  0.01143643  0.19439458    -0.78800
C165        C  0.53804241  0.97091818  0.20676376     0.81900
N166        N  0.49199763  0.95319446  0.21272782    -0.78800
C167        C  0.44672791  0.97468839  0.20634389     0.82000
N168        N  0.44745504  0.01561601  0.19402146    -0.80500
C169        C  0.92011705  0.24551486  0.38642102     0.85700
C170        C  0.92448719  0.29287741  0.37317917    -0.54500
C171        C  0.96899649  0.29414346  0.36337941     0.08700
C172        C  0.00467094  0.24548919  0.36721424     0.19600
C173        C  0.92625690  0.19669198  0.37442702    -0.55200
C174        C  0.96979463  0.19673241  0.36420020     0.08800
C175        C  0.97137132  0.24575771  0.39798840    -0.54800
C176        C  0.01546988  0.24596014  0.38804349     0.09300
H177        H  0.89407034  0.32257637  0.37158345     0.13800
H178        H  0.04031546  0.24471867  0.35902888    -0.00400
H179        H  0.89843191  0.16462897  0.37399496     0.14200
H180        H  0.97416492  0.24343762  0.41275419     0.13900
O181        O  0.06822805  0.54396980  0.97944046    -0.73700
O182        O  0.96383396  0.45883123  0.00599336    -0.74700
O183        O  0.95818470  0.54404880  0.98078403    -0.63300
O184        O  0.07358834  0.45849847  0.00465203    -0.71700
O185        O  0.07603672  0.51249827  0.02831546    -0.71300
O186        O  0.96289113  0.59980192  0.00386609    -0.62500
O187        O  0.96586574  0.51439722  0.02911413    -0.75000
O188        O  0.07360802  0.59847020  0.00290437    -0.73800
Cu189      Cu  0.01590515  0.49942392  0.99193160     1.04600
Cu190      Cu  0.01982816  0.55839124  0.01684436     1.04300
C191        C  0.08805722  0.58439617  0.98709008     0.92500
C192        C  0.94737911  0.47323885  0.02146968     0.91600
C193        C  0.94144697  0.58498815  0.98884656     0.83800
C194        C  0.09266003  0.47153092  0.02024780     0.90100
O195        O  0.07653055  0.95593036  0.99502294    -0.73700
O196        O  0.97699040  0.03764841  0.02524265    -0.74700
O197        O  0.96639814  0.95693111  0.99907374    -0.63300
O198        O  0.08679699  0.03620359  0.02099604    -0.71700
O199        O  0.07769243  0.09577279  0.99860322    -0.71300
O200        O  0.95937657  0.01556672  0.97619117    -0.62500
O201        O  0.96799668  0.09622366  0.00246765    -0.75000
O202        O  0.06882446  0.01545614  0.97245424    -0.73800
Cu203      Cu  0.02689262  0.99450060  0.01085239     1.04600
Cu204      Cu  0.01815400  0.05791373  0.98668404     1.04300
C205        C  0.08912029  0.97304491  0.97919996     0.92500
C206        C  0.95594896  0.07962361  0.01840586     0.91600
C207        C  0.94371708  0.97380120  0.98431704     0.83800
C208        C  0.10197000  0.07834090  0.01293999     0.90100
C209        C  0.77323905  0.26780422  0.07651310     0.79500
N210        N  0.79112105  0.31561793  0.07052465    -0.78800
C211        C  0.83054193  0.31761373  0.05855319     0.81900
N212        N  0.85115635  0.27223457  0.05239761    -0.78800
C213        C  0.83398216  0.22475399  0.05814899     0.82000
N214        N  0.79452427  0.22228730  0.07007733    -0.80500
C215        C  0.28418321  0.77094550  0.93359810     0.79500
N216        N  0.26045076  0.72637667  0.93988456    -0.78800
C217        C  0.21558302  0.73018198  0.94907726     0.81900
N218        N  0.19494044  0.77817042  0.95227289    -0.78800
C219        C  0.21811113  0.82267932  0.94628811     0.82000
N220        N  0.26320051  0.81934093  0.93712200    -0.80500
C221        C  0.29939712  0.26834818  0.06540955     0.79500
N222        N  0.28100287  0.22240211  0.05821696    -0.78800
C223        C  0.24010796  0.22387078  0.04609326     0.81900
N224        N  0.21781180  0.27078538  0.04136945    -0.78800
C225        C  0.23503943  0.31629723  0.04863400     0.82000
N226        N  0.27589368  0.31532536  0.06072664    -0.80500
C227        C  0.73510363  0.77974315  0.93910810     0.79500
N228        N  0.75627282  0.73323736  0.94549277    -0.78800
C229        C  0.79801711  0.73380982  0.95719967     0.81900
N230        N  0.81832820  0.78044904  0.96240931    -0.78800
C231        C  0.79824478  0.82672814  0.95596639     0.82000
N232        N  0.75651906  0.82671790  0.94416092    -0.80500
C233        C  0.57965679  0.25985593  0.11718467     0.85700
C234        C  0.56852186  0.30490386  0.13066568    -0.54500
C235        C  0.52152379  0.30163665  0.13869970     0.08700
C236        C  0.48934313  0.25364096  0.13279058     0.19600
C237        C  0.57226681  0.20910490  0.12864777    -0.55200
C238        C  0.52514192  0.20545159  0.13672827     0.08800
C239        C  0.53274417  0.26224106  0.10376448    -0.54800
C240        C  0.48543015  0.25804272  0.11171711     0.09300
H241        H  0.59376145  0.33779026  0.13369285     0.13800
H242        H  0.45146544  0.25186240  0.13962160    -0.00400
H243        H  0.60241649  0.17916048  0.13055406     0.14200
H244        H  0.53685196  0.26667711  0.08907034     0.13900
C245        C  0.51408285  0.68472904  0.86888277     0.85700
C246        C  0.56316366  0.69495315  0.88098842    -0.54500
C247        C  0.56161873  0.74121773  0.89041280     0.08700
C248        C  0.51136668  0.77318889  0.88717606     0.19600
C249        C  0.46938784  0.68825259  0.88233217    -0.55200
C250        C  0.46766518  0.73445831  0.89176483     0.08800
C251        C  0.50923280  0.73512572  0.85682168    -0.54800
C252        C  0.50745263  0.78109505  0.86632547     0.09300
H253        H  0.59698062  0.66941098  0.88222150     0.13800
H254        H  0.51012444  0.81072705  0.89486855    -0.00400
H255        H  0.44057039  0.65743929  0.88386482     0.14200
H256        H  0.50881262  0.73456001  0.84195658     0.13900
C257        C  0.69704263  0.77562472  0.90770894    -0.09900
C258        C  0.68953496  0.77842480  0.92658046     0.06300
C259        C  0.63897642  0.77453309  0.93328848    -0.03700
C260        C  0.59711538  0.76473404  0.92120997    -0.08100
C261        C  0.60512436  0.75863740  0.90244697     0.05400
C262        C  0.65523307  0.76620306  0.89561627    -0.03200
Br263      Br  0.66827418  0.76478699  0.86988964    -0.02800
H264        H  0.73575901  0.77937642  0.90241933     0.09300
H265        H  0.55859326  0.75980370  0.92656319     0.07300
Br266      Br  0.62590298  0.78062161  0.95888621    -0.03300
C267        C  0.34927569  0.23030070  0.09214124    -0.09900
C268        C  0.34589217  0.26731365  0.07765097     0.06300
C269        C  0.38798220  0.30132663  0.07465126    -0.03700
C270        C  0.43217022  0.29796366  0.08608479    -0.08100
C271        C  0.43597182  0.26094366  0.10064748     0.05400
C272        C  0.39358594  0.22688807  0.10365485    -0.03200
Br273      Br  0.39447637  0.17197891  0.12207788    -0.02800
H274        H  0.31732836  0.20351283  0.09442639     0.09300
H275        H  0.46401182  0.32459926  0.08349140     0.07300
Br276      Br  0.38937610  0.35021202  0.05427499    -0.03300
C277        C  0.36781666  0.72422660  0.92878580    -0.09900
C278        C  0.33369066  0.76599210  0.92378575     0.06300
C279        C  0.34700628  0.80019998  0.90915394    -0.03700
C280        C  0.39218142  0.79058498  0.89943954    -0.08100
C281        C  0.42458531  0.74735327  0.90395280     0.05400
C282        C  0.41301248  0.71498724  0.91911301    -0.03200
Br283      Br  0.45864023  0.65883282  0.92745952    -0.02800
H284        H  0.35923311  0.69838029  0.94026628     0.09300
H285        H  0.40092089  0.81573333  0.88778623     0.07300
Br286      Br  0.30351104  0.85787370  0.90060443    -0.03300
C287        C  0.67019792  0.29901171  0.11133707    -0.09900
C288        C  0.63190289  0.26077322  0.10735057     0.06300
C289        C  0.64346472  0.22296719  0.09381482    -0.03700
C290        C  0.69005364  0.22543431  0.08446114    -0.08100
C291        C  0.72661618  0.26499343  0.08798570     0.05400
C292        C  0.71657916  0.30156068  0.10182042    -0.03200
Br293      Br  0.76558183  0.35441912  0.10921039    -0.02800
H294        H  0.66558676  0.32743272  0.12197512     0.09300
H295        H  0.69702537  0.19680495  0.07390043     0.07300
Br296      Br  0.59746699  0.16707659  0.08666243    -0.03300
C297        C  0.84587041  0.17154457  0.03078704    -0.09900
C298        C  0.85562337  0.17768373  0.04958363     0.06300
C299        C  0.89484391  0.14721271  0.05842923    -0.03700
C300        C  0.92554453  0.11318352  0.04821587    -0.08100
C301        C  0.91822008  0.10984015  0.02911527     0.05400
C302        C  0.87644966  0.13785566  0.02053346    -0.03200
Br303      Br  0.85903344  0.13217578  0.99490938    -0.02800
H304        H  0.81592248  0.19525459  0.02386082     0.09300
H305        H  0.95715155  0.09170369  0.05506779     0.07300
Br306      Br  0.91115639  0.15521472  0.08398199    -0.03300
C307        C  0.20897852  0.17942128  0.01846262    -0.09900
C308        C  0.21883056  0.17639820  0.03739676     0.06300
C309        C  0.19716763  0.13489571  0.04762720    -0.03700
C310        C  0.16140717  0.10099281  0.03914797    -0.08100
C311        C  0.14686950  0.10796831  0.02053357     0.05400
C312        C  0.17367882  0.14569535  0.00993199    -0.03200
Br313      Br  0.16364918  0.15513192  0.98390589    -0.02800
H314        H  0.22641059  0.21068022  0.01041681     0.09300
H315        H  0.14251585  0.07134168  0.04745146     0.07300
Br316      Br  0.21024530  0.12676247  0.07347907    -0.03300
C317        C  0.82292920  0.89013518  0.97978712    -0.09900
C318        C  0.82498862  0.87524289  0.96141469     0.06300
C319        C  0.86319198  0.89714250  0.95023578    -0.03700
C320        C  0.89982452  0.93192624  0.95768122    -0.08100
C321        C  0.89988441  0.94399185  0.97636837     0.05400
C322        C  0.85993459  0.92428466  0.98732208    -0.03200
Br323      Br  0.85463969  0.94207525  0.01266342    -0.02800
H324        H  0.79430114  0.87258801  0.98858390     0.09300
H325        H  0.93045965  0.94667507  0.94914026     0.07300
Br326      Br  0.87097598  0.87503740  0.92545644    -0.03300
C327        C  0.15605293  0.89698868  0.94205569    -0.09900
C328        C  0.19674828  0.87306460  0.95232417     0.06300
C329        C  0.20552773  0.88766760  0.97060905    -0.03700
C330        C  0.17122907  0.92228113  0.97884849    -0.08100
C331        C  0.12826018  0.94349779  0.96902600     0.05400
C332        C  0.12215099  0.93270682  0.95019107    -0.03200
Br333      Br  0.06490080  0.96017698  0.93555107    -0.02800
H334        H  0.14831189  0.88489285  0.92807520     0.09300
H335        H  0.17704164  0.93106544  0.99324428     0.07300
Br336      Br  0.26085623  0.85664329  0.98533864    -0.03300
C337        C  0.17063193  0.38627646  0.05433374    -0.09900
C338        C  0.20832182  0.36539943  0.04295864     0.06300
C339        C  0.21037855  0.38305402  0.02464862    -0.03700
C340        C  0.17369052  0.41953511  0.01773363    -0.08100
C341        C  0.13428176  0.43859682  0.02881120     0.05400
C342        C  0.13343963  0.42247780  0.04738578    -0.03200
Br343      Br  0.07827804  0.44229936  0.06310042    -0.02800
H344        H  0.16758388  0.37124540  0.06822472     0.09300
H345        H  0.17485859  0.43165708  0.00346773     0.07300
Br346      Br  0.26051248  0.35537849  0.00828121    -0.03300
C347        C  0.11980216  0.62248676  0.95809429    -0.09900
C348        C  0.12647002  0.61593200  0.97715043     0.06300
C349        C  0.16808131  0.64154886  0.98620599    -0.03700
C350        C  0.20009896  0.67526090  0.97630496    -0.08100
C351        C  0.19130169  0.68409375  0.95750457     0.05400
C352        C  0.15136964  0.65691605  0.94830854    -0.03200
Br353      Br  0.13550975  0.66945865  0.92281879    -0.02800
H354        H  0.08804623  0.60313844  0.95093388     0.09300
H355        H  0.23037697  0.69683566  0.98348331     0.07300
Br356      Br  0.18321560  0.63251886  0.01194586    -0.03300
C357        C  0.89054198  0.61880160  0.96152396    -0.09900
C358        C  0.89738261  0.61580854  0.98068835     0.06300
C359        C  0.86286542  0.64408332  0.99168302    -0.03700
C360        C  0.82673675  0.67895107  0.98350293    -0.08100
C361        C  0.82307834  0.68534388  0.96445372     0.05400
C362        C  0.85354198  0.65323231  0.95336355    -0.03200
Br363      Br  0.84948280  0.65890463  0.92715503    -0.02800
H364        H  0.91579165  0.59644915  0.95284232     0.09300
H365        H  0.80295844  0.70320793  0.99211504     0.07300
Br366      Br  0.86233765  0.63681455  0.01788901    -0.03300
C367        C  0.90536035  0.44245932  0.05001757    -0.09900
C368        C  0.90810656  0.44090086  0.03080937     0.06300
C369        C  0.87598169  0.40519202  0.02112835    -0.03700
C370        C  0.84621187  0.36903252  0.03075644    -0.08100
C371        C  0.84766401  0.36707925  0.04992392     0.05400
C372        C  0.87573186  0.40555084  0.05962062    -0.03200
Br373      Br  0.88012433  0.40531241  0.08581649    -0.02800
H374        H  0.92910952  0.46996689  0.05770555     0.09300
H375        H  0.82432091  0.33968142  0.02319459     0.07300
Br376      Br  0.87168983  0.40136983  0.99485760    -0.03300
C377        C  0.49532227  0.17194928  0.16688720    -0.09900
C378        C  0.51185026  0.16085373  0.14918665     0.06300
C379        C  0.51785104  0.10751336  0.14409880    -0.03700
C380        C  0.51040961  0.06684959  0.15692097    -0.08100
C381        C  0.49580738  0.07811237  0.17474674     0.05400
C382        C  0.48741320  0.13103173  0.17966820    -0.03200
Br383      Br  0.46872320  0.14927177  0.20400390    -0.02800
H384        H  0.49048220  0.21265282  0.17101272     0.09300
H385        H  0.51635689  0.02611865  0.15299212     0.07300
Br386      Br  0.53353704  0.08724023  0.11970601    -0.03300
C387        C  0.97989277  0.43233794  0.34163652    -0.09900
C388        C  0.00075680  0.42084981  0.32464927     0.06300
C389        C  0.01398190  0.36810686  0.32082907    -0.03700
C390        C  0.00413016  0.32756162  0.33364760    -0.08100
C391        C  0.98152384  0.33870654  0.35050198     0.05400
C392        C  0.97128509  0.39234994  0.35466351    -0.03200
Br393      Br  0.94891237  0.41507450  0.37818705    -0.02800
H394        H  0.97002263  0.47286495  0.34476836     0.09300
H395        H  0.01279429  0.28704286  0.33016978     0.07300
Br396      Br  0.04252499  0.34939171  0.29783587    -0.03300
C397        C  0.45822481  0.42284899  0.15873787    -0.09900
C398        C  0.48714289  0.42793143  0.17514561     0.06300
C399        C  0.52266366  0.38737578  0.18047301    -0.03700
C400        C  0.53116954  0.34489263  0.16883003    -0.08100
C401        C  0.50459191  0.34170220  0.15190224     0.05400
C402        C  0.46698899  0.38047503  0.14707240    -0.03200
Br403      Br  0.43048784  0.38087100  0.12392925    -0.02800
H404        H  0.43096895  0.45364440  0.15441053     0.09300
H405        H  0.55980768  0.31498076  0.17274912     0.07300
Br406      Br  0.56027364  0.38744320  0.20351600    -0.03300
C407        C  0.02794697  0.07572672  0.34192417    -0.09900
C408        C  0.99128717  0.06623360  0.32781481     0.06300
C409        C  0.94946350  0.10228231  0.32509318    -0.03700
C410        C  0.94423355  0.14524643  0.33679113    -0.08100
C411        C  0.98017474  0.15373590  0.35117380     0.05400
C412        C  0.02255895  0.11868420  0.35360171    -0.03200
Br413      Br  0.07178576  0.12441236  0.37350225    -0.02800
H414        H  0.06007952  0.04842211  0.34434131     0.09300
H415        H  0.91159524  0.17215028  0.33472953     0.07300
Br416      Br  0.89936529  0.09688313  0.30528596    -0.03300
C417        C  0.10003193  0.55538048  0.26674502    -0.09900
C418        C  0.09104251  0.55370011  0.28561399     0.06300
C419        C  0.11631687  0.59056019  0.29697293    -0.03700
C420        C  0.14850841  0.62919671  0.28929800    -0.08100
C421        C  0.15501843  0.63271225  0.27025906     0.05400
C422        C  0.13168845  0.59416368  0.25903856    -0.03200
Br423      Br  0.14186455  0.59220884  0.23312215    -0.02800
H424        H  0.08006882  0.52793268  0.25779601     0.09300
H425        H  0.16623739  0.65837838  0.29813739     0.07300
Br426      Br  0.10297756  0.59376380  0.32263392    -0.03300
C427        C  0.32988764  0.88585097  0.20746366    -0.09900
C428        C  0.32616948  0.87745717  0.22646173     0.06300
C429        C  0.35497207  0.91016416  0.23841491    -0.03700
C430        C  0.39111436  0.94550832  0.23138730    -0.08100
C431        C  0.39823693  0.95041751  0.21249534     0.05400
C432        C  0.36565710  0.92206616  0.20043044    -0.03200
Br433      Br  0.37262172  0.92712487  0.17439311    -0.02800
H434        H  0.30720980  0.86203573  0.19805958     0.09300
H435        H  0.41549269  0.96768561  0.24078795     0.07300
Br436      Br  0.34634016  0.90900177  0.26445368    -0.03300
C437        C  0.11780209  0.94863446  0.27987230    -0.09900
C438        C  0.10031774  0.93386944  0.29720271     0.06300
C439        C  0.12105509  0.88822029  0.30597171    -0.03700
C440        C  0.15511989  0.85538223  0.29670165    -0.08100
C441        C  0.16810709  0.86718066  0.27857778     0.05400
C442        C  0.15168183  0.91575670  0.27054410    -0.03200
Br443      Br  0.17325673  0.93818678  0.24671712    -0.02800
H444        H  0.10182526  0.98355345  0.27297314     0.09300
H445        H  0.16820829  0.81862074  0.30314297     0.07300
Br446      Br  0.09905654  0.86635342  0.32977049    -0.03300
C447        C  0.31609518  0.59296675  0.22069351    -0.09900
C448        C  0.31586621  0.64719043  0.21621226     0.06300
C449        C  0.34798168  0.66602303  0.20233937    -0.03700
C450        C  0.38272732  0.63152702  0.19419755    -0.08100
C451        C  0.38594294  0.57802238  0.19960553     0.05400
C452        C  0.35061616  0.55819546  0.21235671    -0.03200
Br453      Br  0.35259781  0.48566495  0.22046042    -0.02800
H454        H  0.29132041  0.57818619  0.23134270     0.09300
H455        H  0.41026323  0.64743947  0.18464247     0.07300
Br456      Br  0.35050328  0.73975331  0.19576509    -0.03300
C457        C  0.64831165  0.62694642  0.20732207    -0.09900
C458        C  0.64551674  0.63795572  0.22614412     0.06300
C459        C  0.60682934  0.61244842  0.23646867    -0.03700
C460        C  0.57027227  0.58067349  0.22770193    -0.08100
C461        C  0.57140935  0.57244445  0.20886336     0.05400
C462        C  0.61158638  0.59442574  0.19866070    -0.03200
Br463      Br  0.61500271  0.58486227  0.17273307    -0.02800
H464        H  0.67784730  0.64527200  0.19912223     0.09300
H465        H  0.53944955  0.56341662  0.23560819     0.07300
Br466      Br  0.59978900  0.61852918  0.26250623    -0.03300
C467        C  0.85898945  0.59108244  0.25904678    -0.09900
C468        C  0.83072860  0.62065224  0.27157037     0.06300
C469        C  0.83683246  0.60856033  0.29050909    -0.03700
C470        C  0.87357955  0.57055383  0.29645767    -0.08100
C471        C  0.90498798  0.54510157  0.28390219     0.05400
C472        C  0.89611037  0.55403503  0.26505196    -0.03200
Br473      Br  0.93601128  0.51893974  0.24696092    -0.02800
H474        H  0.85400967  0.59844147  0.24447281     0.09300
H475        H  0.88079830  0.56435144  0.31099804     0.07300
Br476      Br  0.80163463  0.64617665  0.30921345    -0.03300
C477        C  0.59288010  0.93922714  0.23270665    -0.09900
C478        C  0.58563882  0.94437187  0.21371644     0.06300
C479        C  0.61857589  0.91652002  0.20213978    -0.03700
C480        C  0.65464997  0.88007825  0.20972676    -0.08100
C481        C  0.65878341  0.87147936  0.22880045     0.05400
C482        C  0.62965866  0.90407841  0.24032791    -0.03200
Br483      Br  0.63800345  0.90342170  0.26655439    -0.02800
H484        H  0.56842707  0.96150044  0.24169976     0.09300
H485        H  0.67746460  0.85646043  0.20062337     0.07300
Br486      Br  0.61219180  0.92287776  0.17597213    -0.03300
C487        C  0.84637768  0.85385233  0.29440040    -0.09900
C488        C  0.84268992  0.85231656  0.27513189     0.06300
C489        C  0.87414571  0.88662091  0.26480039    -0.03700
C490        C  0.90967796  0.91933614  0.27373080    -0.08100
C491        C  0.91466538  0.91913714  0.29283742     0.05400
C492        C  0.88241604  0.88659803  0.30327020    -0.03200
Br493      Br  0.88977833  0.88201357  0.32943881    -0.02800
H494        H  0.82280045  0.82784569  0.30261060     0.09300
H495        H  0.93483264  0.94413660  0.26565736     0.07300
Br496      Br  0.87104957  0.89175426  0.23852293    -0.03300
C497        C  0.77446393  0.23710113  0.39822439    -0.09900
C498        C  0.77623336  0.24506456  0.41712908     0.06300
C499        C  0.82382282  0.25625730  0.42586833    -0.03700
C500        C  0.86928325  0.25698751  0.41593498    -0.08100
C501        C  0.86909105  0.24648686  0.39698417     0.05400
C502        C  0.81994135  0.23901249  0.38804679    -0.03200
Br503      Br  0.81112232  0.23340814  0.36192978    -0.02800
H504        H  0.73747691  0.23033294  0.39130575     0.09300
H505        H  0.90404928  0.26753628  0.42340367     0.07300
Br506      Br  0.82868454  0.27086713  0.45158721    -0.03300
C507        C  0.15541370  0.27529201  0.40277753    -0.09900
C508        C  0.16408328  0.23798082  0.41704380     0.06300
C509        C  0.12419090  0.20181360  0.42102239    -0.03700
C510        C  0.07685288  0.20469480  0.41117670    -0.08100
C511        C  0.06797414  0.24257848  0.39710970     0.05400
C512        C  0.10824568  0.27772054  0.39280937    -0.03200
Br513      Br  0.10015953  0.33296926  0.37467426    -0.02800
H514        H  0.18534505  0.30357541  0.39953360     0.09300
H515        H  0.04641638  0.17721542  0.41464786     0.07300
Br516      Br  0.12959872  0.15021561  0.44056383    -0.03300
C517        C  0.31941353  0.39959930  0.47414712    -0.09900
C518        C  0.36264814  0.41961190  0.46513710     0.06300
C519        C  0.37050794  0.40577564  0.44677123    -0.03700
C520        C  0.33829999  0.36808593  0.43847166    -0.08100
C521        C  0.29764362  0.34510586  0.44810514     0.05400
C522        C  0.28668797  0.36309235  0.46569423    -0.03200
Br523      Br  0.23000251  0.33524929  0.47926156    -0.02800
H524        H  0.31243239  0.41057561  0.48816326     0.09300
H525        H  0.34741547  0.35380702  0.42500763     0.07300
Br526      Br  0.42841106  0.43136655  0.43331249    -0.03300
C527        C  0.58888430  0.40996263  0.45291325    -0.09900
C528        C  0.58692732  0.41035250  0.47213542     0.06300
C529        C  0.62049601  0.37657624  0.48252307    -0.03700
C530        C  0.65066089  0.33933353  0.47367668    -0.08100
C531        C  0.64900809  0.33579115  0.45454680     0.05400
C532        C  0.61971462  0.37292335  0.44407421    -0.03200
Br533      Br  0.61600033  0.37059807  0.41785717    -0.02800
H534        H  0.56390767  0.43617355  0.44472079     0.09300
H535        H  0.67400179  0.31146684  0.48181815     0.07300
Br536      Br  0.62703943  0.37928849  0.50875269    -0.03300
C537        C  0.32538104  0.61549783  0.50728946    -0.09900
C538        C  0.35296885  0.58053448  0.51915920     0.06300
C539        C  0.33834782  0.57693912  0.53770449    -0.03700
C540        C  0.30030566  0.61140567  0.54421548    -0.08100
C541        C  0.27640880  0.64935224  0.53255307     0.05400
C542        C  0.28752167  0.64949118  0.51379434    -0.03200
Br543      Br  0.25433397  0.69817887  0.49666456    -0.02800
H544        H  0.33440812  0.61777648  0.49290905     0.09300
H545        H  0.29263778  0.61153808  0.55871449     0.07300
Br546      Br  0.37202965  0.53035532  0.55537047    -0.03300
C547        C  0.62877492  0.60029240  0.55530530    -0.09900
C548        C  0.66429025  0.62950012  0.54513572     0.06300
C549        C  0.66461808  0.62402109  0.52602020    -0.03700
C550        C  0.62668190  0.59388942  0.51719483    -0.08100
C551        C  0.58803413  0.56824586  0.52712320     0.05400
C552        C  0.59091020  0.56935346  0.54649444    -0.03200
Br553      Br  0.54095485  0.53520220  0.56161828    -0.02800
H554        H  0.62757087  0.60517453  0.57001468     0.09300
H555        H  0.62627976  0.59219072  0.50236331     0.07300
Br556      Br  0.71321744  0.66167095  0.51127836    -0.03300
C557        C  0.35206951  0.11850924  0.48228352    -0.09900
C558        C  0.37339474  0.07779795  0.47192938     0.06300
C559        C  0.35822650  0.07459256  0.45315481    -0.03700
C560        C  0.32447874  0.11301947  0.44519810    -0.08100
C561        C  0.30611963  0.15524978  0.45550291     0.05400
C562        C  0.31937328  0.15689694  0.47431767    -0.03200
Br563      Br  0.29480511  0.21112000  0.49007167    -0.02800
H564        H  0.36180248  0.12158720  0.49673233     0.09300
H565        H  0.31505411  0.11164154  0.43068538     0.07300
Br566      Br  0.38462707  0.02193929  0.43712717    -0.03300
C567        C  0.59306951  0.88477347  0.54577998    -0.09900
C568        C  0.59345740  0.88991716  0.52655654     0.06300
C569        C  0.63103329  0.86146489  0.51692575    -0.03700
C570        C  0.66474555  0.82642613  0.52634419    -0.08100
C571        C  0.66214962  0.81884325  0.54533834     0.05400
C572        C  0.62662544  0.84902404  0.55515213    -0.03200
Br573      Br  0.61898147  0.83837908  0.58098284    -0.02800
H574        H  0.56463653  0.90633900  0.55343847     0.09300
H575        H  0.69140226  0.80269097  0.51863447     0.07300
Br576      Br  0.63843896  0.86825533  0.49091014    -0.03300
C577        C  0.36511651  0.89052200  0.54229051    -0.09900
C578        C  0.36256769  0.90392746  0.52355939     0.06300
C579        C  0.31993122  0.88669171  0.51276558    -0.03700
C580        C  0.28264950  0.85401963  0.52051069    -0.08100
C581        C  0.28729273  0.83733187  0.53886258     0.05400
C582        C  0.32840578  0.85650367  0.54988615    -0.03200
Br583      Br  0.34008875  0.83112104  0.57452796    -0.02800
H584        H  0.39784231  0.90315436  0.55069217     0.09300
H585        H  0.25192067  0.83835297  0.51180617     0.07300
Br586      Br  0.31146708  0.90472466  0.48720589    -0.03300
C587        C  0.62746705  0.09939698  0.48247620    -0.09900
C588        C  0.59423886  0.06692569  0.47215771     0.06300
C589        C  0.59454139  0.07117935  0.45277688    -0.03700
C590        C  0.62479452  0.11006262  0.44434964    -0.08100
C591        C  0.65444340  0.14507543  0.45489176     0.05400
C592        C  0.65713802  0.13824457  0.47404388    -0.03200
Br593      Br  0.69854798  0.18334077  0.48939712    -0.02800
H594        H  0.62863712  0.09626764  0.49728850     0.09300
H595        H  0.62195516  0.11562807  0.42962256     0.07300
Br596      Br  0.55007011  0.03037113  0.43698786    -0.03300
C597        C  0.06289720  0.72967227  0.58089905    -0.09900
C598        C  0.07396172  0.74405096  0.59909882     0.06300
C599        C  0.12629971  0.75498293  0.60423876    -0.03700
C600        C  0.16516102  0.75344025  0.59125730    -0.08100
C601        C  0.15383529  0.74028472  0.57310101     0.05400
C602        C  0.10229001  0.72803227  0.56792201    -0.03200
Br603      Br  0.08359521  0.71268528  0.54300615    -0.02800
H604        H  0.02334716  0.72137734  0.57659806     0.09300
H605        H  0.20477744  0.76234587  0.59540658     0.07300
Br606      Br  0.14903872  0.77020505  0.62883806    -0.03300
C607        C  0.89269685  0.73216481  0.58512625    -0.09900
C608        C  0.88948610  0.72768861  0.60422224     0.06300
C609        C  0.84055010  0.71839095  0.61190893    -0.03700
C610        C  0.79587344  0.71583934  0.60057557    -0.08100
C611        C  0.79893832  0.72265798  0.58156642     0.05400
C612        C  0.84790037  0.72995291  0.57382431    -0.03200
Br613      Br  0.85504767  0.73823890  0.54788831    -0.02800
H614        H  0.92977577  0.73971535  0.57903201     0.09300
H615        H  0.75850799  0.70945731  0.60664875     0.07300
Br616      Br  0.83269251  0.70835951  0.63778683    -0.03300
C617        C  0.55186612  0.86537093  0.85910854    -0.09900
C618        C  0.50788345  0.83356414  0.85709946     0.06300
C619        C  0.46683532  0.85067856  0.84539808    -0.03700
C620        C  0.47079540  0.89822743  0.83554155    -0.08100
C621        C  0.51585874  0.92932423  0.83672516     0.05400
C622        C  0.55667437  0.91246645  0.84892125    -0.03200
Br623      Br  0.62016933  0.95073567  0.85259337    -0.02800
H624        H  0.58348349  0.85257516  0.86821640     0.09300
H625        H  0.43883915  0.90987045  0.82640442     0.07300
Br626      Br  0.40428964  0.81082304  0.84245094    -0.03300
C627        C  0.47171949  0.58218421  0.83289655    -0.09900
C628        C  0.51445801  0.54767531  0.83265017     0.06300
C629        C  0.55471990  0.55417216  0.84591007    -0.03700
C630        C  0.55351043  0.59691879  0.85787341    -0.08100
C631        C  0.51248476  0.63424140  0.85729363     0.05400
C632        C  0.47001324  0.62436944  0.84504353    -0.03200
Br633      Br  0.40803380  0.66698374  0.84364376    -0.02800
H634        H  0.43968817  0.57736524  0.82317700     0.09300
H635        H  0.58551272  0.59984393  0.86758857     0.07300
Br636      Br  0.61159295  0.50500709  0.84922079    -0.03300
C637        C  0.01274439  0.83325941  0.66854794    -0.09900
C638        C  0.98962367  0.83688324  0.65078601     0.06300
C639        C  0.97416729  0.88807492  0.64420380    -0.03700
C640        C  0.97921438  0.93211101  0.65549985    -0.08100
C641        C  0.00167538  0.92738362  0.67306083     0.05400
C642        C  0.01845589  0.87755965  0.67959119    -0.03200
Br643      Br  0.04830700  0.86777516  0.70377753    -0.02800
H644        H  0.02867768  0.79658821  0.67401840     0.09300
H645        H  0.96657935  0.97069435  0.65036951     0.07300
Br646      Br  0.94840678  0.90252152  0.61968183    -0.03300
C647        C  0.04489753  0.57267810  0.66374412    -0.09900
C648        C  0.00133682  0.53955385  0.66312954     0.06300
C649        C  0.95869935  0.55438354  0.65148841    -0.03700
C650        C  0.95955882  0.60263349  0.64163114    -0.08100
C651        C  0.00200115  0.63688875  0.64329629     0.05400
C652        C  0.04533670  0.62081413  0.65416580    -0.03200
Br653      Br  0.10589442  0.66372742  0.65699907    -0.02800
H654        H  0.07829058  0.56239230  0.67241804     0.09300
H655        H  0.92594496  0.61457534  0.63331645     0.07300
Br656      Br  0.89854328  0.51080888  0.64827030    -0.03300
C657        C  0.66396408  0.39805853  0.76730484    -0.09900
C658        C  0.68709982  0.36034900  0.77925978     0.06300
C659        C  0.67902438  0.36402747  0.79823971    -0.03700
C660        C  0.64260281  0.40044902  0.80452230    -0.08100
C661        C  0.61536648  0.43406577  0.79215089     0.05400
C662        C  0.62895483  0.43522515  0.77367366    -0.03200
Br663      Br  0.59985924  0.48619423  0.75659187    -0.02800
H664        H  0.67180454  0.39747433  0.75282465     0.09300
H665        H  0.63274214  0.39971315  0.81883919     0.07300
Br666      Br  0.71210073  0.31745016  0.81596156    -0.03300
C667        C  0.87670256  0.38394546  0.73385655    -0.09900
C668        C  0.84141351  0.35222691  0.72410647     0.06300
C669        C  0.83885583  0.35690329  0.70473350    -0.03700
C670        C  0.87467198  0.38897546  0.69566388    -0.08100
C671        C  0.91291289  0.41641984  0.70557253     0.05400
C672        C  0.91224269  0.41552293  0.72481587    -0.03200
Br673      Br  0.96128056  0.45443153  0.73947527    -0.02800
H674        H  0.87835953  0.38247310  0.74869470     0.09300
H675        H  0.87513846  0.38926967  0.68083223     0.07300
Br676      Br  0.79169875  0.31695077  0.68967474    -0.03300
C677        C  0.64682701  0.09018986  0.81077448    -0.09900
C678        C  0.61832405  0.05500601  0.79987493     0.06300
C679        C  0.63008992  0.05020465  0.78132235    -0.03700
C680        C  0.66472801  0.08513945  0.77333062    -0.08100
C681        C  0.68940965  0.12427702  0.78372596     0.05400
C682        C  0.68305520  0.12427211  0.80288470    -0.03200
Br683      Br  0.71827172  0.17296863  0.81865774    -0.02800
H684        H  0.63819666  0.09390067  0.82512795     0.09300
H685        H  0.67092330  0.08296055  0.75875277     0.07300
Br686      Br  0.59780907  0.99800193  0.76618524    -0.03300
C687        C  0.88163233  0.09493698  0.73895762    -0.09900
C688        C  0.84487122  0.12337725  0.72816528     0.06300
C689        C  0.84227530  0.11474997  0.70904134    -0.03700
C690        C  0.87943804  0.08217772  0.70106543    -0.08100
C691        C  0.91901205  0.05824150  0.71185923     0.05400
C692        C  0.91846784  0.06282062  0.73100124    -0.03200
Br693      Br  0.96846752  0.02750898  0.74696092    -0.02800
H694        H  0.88323243  0.09932421  0.75367198     0.09300
H695        H  0.87956621  0.07854036  0.68633219     0.07300
Br696      Br  0.79292379  0.14964841  0.69273553    -0.03300
C697        C  0.38585319  0.39163724  0.76063349    -0.09900
C698        C  0.35510883  0.36022227  0.77201983     0.06300
C699        C  0.35821877  0.36828867  0.79117572    -0.03700
C700        C  0.39457723  0.40378470  0.79848591    -0.08100
C701        C  0.42800501  0.43176055  0.78709057     0.05400
C702        C  0.42169252  0.42726237  0.76797625    -0.03200
Br703      Br  0.46103783  0.46896544  0.75124781    -0.02800
H704        H  0.38289029  0.38768879  0.74590605     0.09300
H705        H  0.39914843  0.40676980  0.81321189     0.07300
Br706      Br  0.31817684  0.32895474  0.80842443    -0.03300
C707        C  0.16296132  0.33749247  0.70109912    -0.09900
C708        C  0.17862629  0.34953399  0.71910065     0.06300
C709        C  0.15678770  0.39388238  0.72756947    -0.03700
C710        C  0.11731796  0.42296599  0.71850692    -0.08100
C711        C  0.09928349  0.40864655  0.70102954     0.05400
C712        C  0.12302620  0.36634312  0.69213383    -0.03200
Br713      Br  0.09800636  0.34306668  0.66868346    -0.02800
H714        H  0.17915436  0.30326949  0.69449697     0.09300
H715        H  0.09891457  0.45534252  0.72547436     0.07300
Br716      Br  0.17886666  0.41582158  0.75157326    -0.03300
C717        C  0.17756556  0.11751401  0.70554353    -0.09900
C718        C  0.18159048  0.12192787  0.72473902     0.06300
C719        C  0.15061278  0.08887580  0.73566798    -0.03700
C720        C  0.11295649  0.05707616  0.72745176    -0.08100
C721        C  0.10564031  0.05639207  0.70840217     0.05400
C722        C  0.13985539  0.08494221  0.69733136    -0.03200
Br723      Br  0.13311558  0.08460793  0.67113676    -0.02800
H724        H  0.20156671  0.14182078  0.69687743     0.09300
H725        H  0.08737093  0.03445361  0.73609002     0.07300
Br726      Br  0.15705665  0.08523271  0.76191826    -0.03300
C727        C  0.38694709  0.09491233  0.76768477    -0.09900
C728        C  0.35772963  0.13106763  0.77761960     0.06300
C729        C  0.36284347  0.13014143  0.79698820    -0.03700
C730        C  0.39958191  0.09643352  0.80574867    -0.08100
C731        C  0.43092419  0.06301659  0.79556008     0.05400
C732        C  0.42282059  0.06091883  0.77647927    -0.03200
Br733      Br  0.45995369  0.01224689  0.76175961    -0.02800
H734        H  0.38254253  0.09361650  0.75292333     0.09300
H735        H  0.40573849  0.09853974  0.82042670     0.07300
Br736      Br  0.32479427  0.17679158  0.81226545    -0.03300
loop_ 
_geom_bond_atom_site_label_1 
_geom_bond_atom_site_label_2 
_geom_bond_distance 
_geom_bond_site_symmetry_2 
_ccdc_geom_bond_type 
O1           Cu9   2.014       .  S
O1           C11   1.278       .  A
O2           Cu9   2.016       .  S
O2           C12   1.280       .  A
O3           Cu9   2.020       .  S
O3           C13   1.278       .  A
O4           Cu9   2.020       .  S
O4           C14   1.281       .  A
O5          Cu10   2.005       .  S
O5           C14   1.276       .  A
O6          Cu10   2.006       .  S
O6           C13   1.278       .  A
O7          Cu10   2.009       .  S
O7           C12   1.276       .  A
O8          Cu10   2.001       .  S
O8           C11   1.277       .  A
Cu9         Cu10   2.369       .  S
C11         C708   1.474       .  S
C12         C728   1.485       .  S
C13         C718   1.485       .  S
C14         C698   1.487       .  S
O15         Cu23   2.006       .  S
O15          C25   1.280       .  A
O16         Cu23   2.010       .  S
O16          C26   1.276       .  A
O17         Cu23   1.999       .  S
O17          C27   1.279       .  A
O18         Cu23   2.006       .  S
O18          C28   1.275       .  A
O19         Cu24   2.001       .  S
O19          C28   1.279       .  A
O20         Cu24   2.003       .  S
O20          C27   1.275       .  A
O21         Cu24   2.005       .  S
O21          C26   1.279       .  A
O22         Cu24   2.008       .  S
O22          C25   1.276       .  A
Cu23        Cu24   2.371       .  S
C25         C668   1.484       .  S
C26         C681   1.477       .  S
C27         C688   1.480       .  S
C28         C658   1.473       .  S
C29         C648   1.490       .  S
C29          N30   1.365       .  A
C29          N34   1.366   1_455  A
N30          C31   1.356       .  A
C31         C711   1.466       .  S
C31          N32   1.349       .  A
N32          C33   1.352   1_455  A
C33         C671   1.470       .  S
C33          N34   1.361       .  A
C35         C641   1.470       .  S
C35          N36   1.366       .  A
C35          N40   1.361   1_455  A
N36          C37   1.360   1_565  A
C37         C721   1.473       .  S
C37          N38   1.351       .  A
N38          C39   1.351   1_455  A
C39         C691   1.467       .  S
C39          N40   1.355   1_545  A
C41         C628   1.490       .  S
C41          N42   1.367       .  A
C41          N46   1.361       .  A
N42          C43   1.361       .  A
C43         C701   1.477       .  S
C43          N44   1.353       .  A
N44          C45   1.353       .  A
C45         C661   1.467       .  S
C45          N46   1.355       .  A
C47         C621   1.492       .  S
C47          N48   1.367       .  A
C47          N52   1.364       .  A
N48          C49   1.359   1_565  A
C49         C731   1.473       .  S
C49          N50   1.351       .  A
N50          C51   1.352       .  A
C51         C678   1.467       .  S
C51          N52   1.357   1_545  A
C53          C54   1.530   1_655  S
C53          C59   1.546       .  S
C53          C57   1.533       .  S
C53         C638   1.539       .  S
C54          H61   1.086       .  S
C54          C55   1.364       .  D
C55          C56   1.552   1_455  S
C55         C598   1.499       .  S
C56          C60   1.542       .  S
C56          C58   1.551       .  S
C56          H62   1.111       .  S
C57          H63   1.086       .  S
C57          C58   1.367       .  D
C58         C608   1.488       .  S
C59          H64   1.083       .  S
C59          C60   1.365       .  D
C60         C651   1.485   1_655  S
O65         Cu73   2.004       .  S
O65          C75   1.280       .  A
O66         Cu73   2.010   1_565  S
O66          C76   1.277       .  A
O67         Cu73   2.012       .  S
O67          C77   1.280       .  A
O68         Cu73   2.015   1_565  S
O68          C78   1.278       .  A
O69         Cu74   2.002       .  S
O69          C78   1.277       .  A
O70         Cu74   2.003       .  S
O70          C77   1.275   1_565  A
O71         Cu74   2.021       .  S
O71          C76   1.280       .  A
O72         Cu74   2.019       .  S
O72          C75   1.277   1_565  A
Cu73        Cu74   2.368   1_545  S
C75         C558   1.492       .  S
C76         C568   1.484       .  S
C77         C588   1.483       .  S
C78         C578   1.476       .  S
O79         Cu87   2.005       .  S
O79          C89   1.278       .  A
O80         Cu87   2.009       .  S
O80          C90   1.276       .  A
O81         Cu87   2.000       .  S
O81          C91   1.278       .  A
O82         Cu87   2.007       .  S
O82          C92   1.276       .  A
O83         Cu88   2.015       .  S
O83          C92   1.280       .  A
O84         Cu88   2.014       .  S
O84          C91   1.277       .  A
O85         Cu88   2.009       .  S
O85          C90   1.280       .  A
O86         Cu88   2.003       .  S
O86          C89   1.276       .  A
Cu87        Cu88   2.371       .  S
C89         C528   1.476       .  S
C90         C538   1.486       .  S
C91         C518   1.474       .  S
C92         C551   1.483       .  S
C93         C508   1.489       .  S
C93          N94   1.364       .  A
C93          N98   1.368       .  A
N94          C95   1.356       .  A
C95         C521   1.465       .  S
C95          N96   1.350       .  A
N96          C97   1.352       .  A
C97         C561   1.479       .  S
C97          N98   1.363       .  A
C99         C498   1.470       .  S
C99         N100   1.364       .  A
C99         N104   1.363       .  A
N100        C101   1.360       .  A
C101        C591   1.470       .  S
C101        N102   1.351       .  A
N102        C103   1.350       .  A
C103        C531   1.467       .  S
C103        N104   1.357       .  A
C105        C601   1.480       .  S
C105        N106   1.367       .  A
C105        N110   1.367       .  A
N106        C107   1.359       .  A
C107        C581   1.467       .  S
C107        N108   1.346       .  A
N108        C109   1.348       .  A
C109        C541   1.471       .  S
C109        N110   1.362       .  A
C111        C611   1.478       .  S
C111        N112   1.368       .  A
C111        N116   1.366       .  A
N112        C113   1.361       .  A
C113        C571   1.471       .  S
C113        N114   1.347       .  A
N114        C115   1.348       .  A
C115        C548   1.467       .  S
C115        N116   1.360       .  A
O117       Cu125   1.998       .  S
O117        C127   1.278       .  A
O118       Cu125   2.011       .  S
O118        C128   1.278       .  A
O119       Cu125   2.007       .  S
O119        C129   1.278       .  A
O120       Cu125   2.015       .  S
O120        C130   1.279       .  A
O121       Cu126   1.991       .  S
O121        C130   1.275       .  A
O122       Cu126   2.000       .  S
O122        C129   1.276       .  A
O123       Cu126   1.999       .  S
O123        C128   1.277       .  A
O124       Cu126   2.004       .  S
O124        C127   1.276       .  A
Cu125      Cu126   2.366       .  S
C127        C468   1.481       .  S
C128        C481   1.482       .  S
C129        C488   1.481       .  S
C130        C458   1.486       .  S
O131       Cu139   2.011       .  S
O131        C141   1.276       .  A
O132       Cu139   2.011       .  S
O132        C142   1.279       .  A
O133       Cu139   2.021       .  S
O133        C143   1.278       .  A
O134       Cu139   2.030       .  S
O134        C144   1.281       .  A
O135       Cu140   2.010       .  S
O135        C144   1.277       .  A
O136       Cu140   2.011       .  S
O136        C143   1.279       .  A
O137       Cu140   2.010       .  S
O137        C142   1.277       .  A
O138       Cu140   2.015       .  S
O138        C141   1.278       .  A
Cu139      Cu140   2.373       .  S
C141        C448   1.470       .  S
C142        C441   1.474       .  S
C143        C428   1.484       .  S
C144        C421   1.485       .  S
C145        C408   1.485       .  S
C145        N146   1.364   1_545  A
C145        N150   1.367   1_645  A
N146        C147   1.357       .  A
C147        C491   1.465       .  S
C147        N148   1.349   1_655  A
N148        C149   1.349       .  A
C149        C438   1.465       .  S
C149        N150   1.359       .  A
C151        C398   1.481       .  S
C151        N152   1.363       .  A
C151        N156   1.368       .  A
N152        C153   1.355       .  A
C153        C461   1.465       .  S
C153        N154   1.349       .  A
N154        C155   1.351       .  A
C155        C451   1.473       .  S
C155        N156   1.362       .  A
C157        C388   1.479       .  S
C157        N158   1.361   1_455  A
C157        N162   1.370       .  A
N158        C159   1.355       .  A
C159        C471   1.465       .  S
C159        N160   1.349       .  A
N160        C161   1.350   1_655  A
C161        C418   1.477       .  S
C161        N162   1.367       .  A
C163        C381   1.470       .  S
C163        N164   1.361       .  A
C163        N168   1.365       .  A
N164        C165   1.356   1_545  A
C165        C478   1.470       .  S
C165        N166   1.352       .  A
N166        C167   1.353       .  A
C167        C431   1.474       .  S
C167        N168   1.361   1_565  A
C169        C170   1.534       .  S
C169        C175   1.550       .  S
C169        C173   1.535       .  S
C169        C501   1.543       .  S
C170        H177   1.085       .  S
C170        C171   1.369       .  D
C171        C172   1.548   1_655  S
C171        C391   1.499       .  S
C172        C176   1.540       .  S
C172        C174   1.545   1_455  S
C172        H178   1.110       .  S
C173        H179   1.086       .  S
C173        C174   1.365       .  D
C174        C411   1.484       .  S
C175        H180   1.080       .  S
C175        C176   1.365   1_655  D
C176        C511   1.492       .  S
O181       Cu189   1.993       .  S
O181        C191   1.276       .  A
O182       Cu189   1.992   1_654  S
O182        C192   1.276       .  A
O183       Cu189   2.009   1_655  S
O183        C193   1.277       .  A
O184       Cu189   2.006   1_554  S
O184        C194   1.278       .  A
O185       Cu190   2.008       .  S
O185        C194   1.277       .  A
O186       Cu190   2.006   1_655  S
O186        C193   1.278   1_554  A
O187       Cu190   2.007   1_655  S
O187        C192   1.277       .  A
O188       Cu190   2.011       .  S
O188        C191   1.278   1_554  A
Cu189      Cu190   2.371   1_556  S
C191        C348   1.474       .  S
C192        C368   1.479       .  S
C193        C358   1.480       .  S
C194        C341   1.474       .  S
O195       Cu203   2.006   1_556  S
O195        C205   1.279       .  A
O196       Cu203   2.010   1_645  S
O196        C206   1.277       .  A
O197       Cu203   2.012   1_656  S
O197        C207   1.279       .  A
O198       Cu203   2.008   1_545  S
O198        C208   1.277       .  A
O199       Cu204   2.001       .  S
O199        C208   1.277   1_556  A
O200       Cu204   2.004   1_655  S
O200        C207   1.276   1_545  A
O201       Cu204   2.009   1_654  S
O201        C206   1.278       .  A
O202       Cu204   2.007       .  S
O202        C205   1.276   1_545  A
Cu203      Cu204   2.372   1_564  S
C205        C331   1.475       .  S
C206        C301   1.480       .  S
C207        C321   1.474       .  S
C208        C311   1.483       .  S
C209        C291   1.485       .  S
C209        N210   1.366       .  A
C209        N214   1.367       .  A
N210        C211   1.359       .  A
C211        C371   1.467       .  S
C211        N212   1.350       .  A
N212        C213   1.347       .  A
C213        C298   1.467       .  S
C213        N214   1.358       .  A
C215        C278   1.486       .  S
C215        N216   1.365       .  A
C215        N220   1.365       .  A
N216        C217   1.356       .  A
C217        C351   1.461       .  S
C217        N218   1.348       .  A
N218        C219   1.349       .  A
C219        C328   1.463       .  S
C219        N220   1.360       .  A
C221        C268   1.476       .  S
C221        N222   1.365       .  A
C221        N226   1.364       .  A
N222        C223   1.359       .  A
C223        C308   1.469       .  S
C223        N224   1.350       .  A
N224        C225   1.347       .  A
C225        C338   1.464       .  S
C225        N226   1.357       .  A
C227        C258   1.471       .  S
C227        N228   1.363       .  A
C227        N232   1.365       .  A
N228        C229   1.357       .  A
C229        C361   1.466       .  S
C229        N230   1.349       .  A
N230        C231   1.349       .  A
C231        C318   1.466       .  S
C231        N232   1.361       .  A
C233        C234   1.548       .  S
C233        C239   1.537       .  S
C233        C237   1.537       .  S
C233        C288   1.543       .  S
C234        H241   1.081       .  S
C234        C235   1.363       .  D
C235        C236   1.535       .  S
C235        C401   1.481       .  S
C236        C240   1.543       .  S
C236        C238   1.542       .  S
C236        H242   1.109       .  S
C237        H243   1.086       .  S
C237        C238   1.368       .  D
C238        C378   1.485       .  S
C239        H244   1.086       .  S
C239        C240   1.369       .  D
C240        C271   1.493       .  S
C245        C246   1.550       .  S
C245        C251   1.540       .  S
C245        C249   1.537       .  S
C245        C631   1.543       .  S
C246        H253   1.082       .  S
C246        C247   1.367       .  D
C247        C248   1.533       .  S
C247        C261   1.480       .  S
C248        C252   1.534       .  S
C248        C250   1.537       .  S
C248        H254   1.111       .  S
C249        H255   1.086       .  S
C249        C250   1.366       .  D
C250        C281   1.480       .  S
C251        H256   1.086       .  S
C251        C252   1.364       .  D
C252        C618   1.479       .  S
C257        C258   1.400       .  A
C257        C262   1.400       .  A
C257        H264   1.084       .  S
C258        C259   1.408       .  A
C259        C260   1.402       .  A
C259       Br266   1.918       .  S
C260        C261   1.403       .  A
C260        H265   1.084       .  S
C261        C262   1.410       .  A
C262       Br263   1.919       .  S
C267        C268   1.403       .  A
C267        C272   1.402       .  A
C267        H274   1.084       .  S
C268        C269   1.408       .  A
C269        C270   1.396       .  A
C269       Br276   1.921       .  S
C270        C271   1.407       .  A
C270        H275   1.084       .  S
C271        C272   1.415       .  A
C272       Br273   1.918       .  S
C277        C278   1.407       .  A
C277        C282   1.399       .  A
C277        H284   1.084       .  S
C278        C279   1.415       .  A
C279        C280   1.402       .  A
C279       Br286   1.920       .  S
C280        C281   1.401       .  A
C280        H285   1.084       .  S
C281        C282   1.406       .  A
C282       Br283   1.919       .  S
C287        C288   1.414       .  A
C287        C292   1.400       .  A
C287        H294   1.075       .  S
C288        C289   1.422       .  A
C289        C290   1.399       .  A
C289       Br296   1.920       .  S
C290        C291   1.401       .  A
C290        H295   1.084       .  S
C291        C292   1.408       .  A
C292       Br293   1.919       .  S
C297        C298   1.401       .  A
C297        C302   1.397       .  A
C297        H304   1.084       .  S
C298        C299   1.405       .  A
C299        C300   1.402       .  A
C299       Br306   1.917       .  S
C300        C301   1.407       .  A
C300        H305   1.083       .  S
C301        C302   1.412       .  A
C302       Br303   1.922   1_554  S
C307        C308   1.401       .  A
C307        C312   1.393       .  A
C307        H314   1.084       .  S
C308        C309   1.406       .  A
C309        C310   1.402       .  A
C309       Br316   1.918       .  S
C310        C311   1.409       .  A
C310        H315   1.083       .  S
C311        C312   1.414       .  A
C312       Br313   1.923   1_554  S
C317        C318   1.402       .  A
C317        C322   1.399       .  A
C317        H324   1.084       .  S
C318        C319   1.407       .  A
C319        C320   1.400       .  A
C319       Br326   1.918       .  S
C320        C321   1.404       .  A
C320        H325   1.084       .  S
C321        C322   1.410       .  A
C322       Br323   1.921   1_556  S
C327        C328   1.402       .  A
C327        C332   1.402       .  A
C327        H334   1.085       .  S
C328        C329   1.405       .  A
C329        C330   1.394       .  A
C329       Br336   1.920       .  S
C330        C331   1.403       .  A
C330        H335   1.085       .  S
C331        C332   1.412       .  A
C332       Br333   1.920       .  S
C337        C338   1.401       .  A
C337        C342   1.401       .  A
C337        H344   1.083       .  S
C338        C339   1.406       .  A
C339        C340   1.396       .  A
C339       Br346   1.920       .  S
C340        C341   1.403       .  A
C340        H345   1.083       .  S
C341        C342   1.412       .  A
C342       Br343   1.920       .  S
C347        C348   1.406       .  A
C347        C352   1.397       .  A
C347        H354   1.083       .  S
C348        C349   1.412       .  A
C349        C350   1.397       .  A
C349       Br356   1.921   1_556  S
C350        C351   1.401       .  A
C350        H355   1.084       .  S
C351        C352   1.404       .  A
C352       Br353   1.917       .  S
C357        C358   1.408       .  A
C357        C362   1.402       .  A
C357        H364   1.083       .  S
C358        C359   1.413       .  A
C359        C360   1.395       .  A
C359       Br366   1.921   1_556  S
C360        C361   1.399       .  A
C360        H365   1.084       .  S
C361        C362   1.406       .  A
C362       Br363   1.918       .  S
C367        C368   1.408       .  A
C367        C372   1.401       .  A
C367        H374   1.083       .  S
C368        C369   1.414       .  A
C369        C370   1.392       .  A
C369       Br376   1.924   1_554  S
C370        C371   1.400       .  A
C370        H375   1.084       .  S
C371        C372   1.405       .  A
C372       Br373   1.914       .  S
C377        C378   1.404       .  A
C377        C382   1.402       .  A
C377        H384   1.084       .  S
C378        C379   1.413       .  A
C379        C380   1.397       .  A
C379       Br386   1.915       .  S
C380        C381   1.398       .  A
C380        H385   1.084       .  S
C381        C382   1.407       .  A
C382       Br383   1.917       .  S
C387        C388   1.400   1_655  A
C387        C392   1.400       .  A
C387        H394   1.083       .  S
C388        C389   1.408       .  A
C389        C390   1.406       .  A
C389       Br396   1.917       .  S
C390        C391   1.408   1_455  A
C390        H395   1.082       .  S
C391        C392   1.419       .  A
C392       Br393   1.923       .  S
C397        C398   1.403       .  A
C397        C402   1.400       .  A
C397        H404   1.083       .  S
C398        C399   1.413       .  A
C399        C400   1.400       .  A
C399       Br406   1.921       .  S
C400        C401   1.402       .  A
C400        H405   1.083       .  S
C401        C402   1.408       .  A
C402       Br403   1.913       .  S
C407        C408   1.405   1_455  A
C407        C412   1.400       .  A
C407        H414   1.084       .  S
C408        C409   1.415       .  A
C409        C410   1.401       .  A
C409       Br416   1.921       .  S
C410        C411   1.403       .  A
C410        H415   1.084       .  S
C411        C412   1.408   1_655  A
C412       Br413   1.912       .  S
C417        C418   1.404       .  A
C417        C422   1.400       .  A
C417        H424   1.084       .  S
C418        C419   1.409       .  A
C419        C420   1.405       .  A
C419       Br426   1.918       .  S
C420        C421   1.407       .  A
C420        H425   1.083       .  S
C421        C422   1.411       .  A
C422       Br423   1.920       .  S
C427        C428   1.407       .  A
C427        C432   1.405       .  A
C427        H434   1.083       .  S
C428        C429   1.412       .  A
C429        C430   1.397       .  A
C429       Br436   1.921       .  S
C430        C431   1.401       .  A
C430        H435   1.084       .  S
C431        C432   1.409       .  A
C432       Br433   1.918       .  S
C437        C438   1.401       .  A
C437        C442   1.399       .  A
C437        H444   1.083       .  S
C438        C439   1.407       .  A
C439        C440   1.399       .  A
C439       Br446   1.918       .  S
C440        C441   1.403       .  A
C440        H445   1.083       .  S
C441        C442   1.410       .  A
C442       Br443   1.920       .  S
C447        C448   1.404       .  A
C447        C452   1.404       .  A
C447        H454   1.083       .  S
C448        C449   1.405       .  A
C449        C450   1.397       .  A
C449       Br456   1.919       .  S
C450        C451   1.404       .  A
C450        H455   1.084       .  S
C451        C452   1.409       .  A
C452       Br453   1.918       .  S
C457        C458   1.411       .  A
C457        C462   1.403       .  A
C457        H464   1.083       .  S
C458        C459   1.419       .  A
C459        C460   1.392       .  A
C459       Br466   1.924       .  S
C460        C461   1.396       .  A
C460        H465   1.084       .  S
C461        C462   1.404       .  A
C462       Br463   1.918       .  S
C467        C468   1.406       .  A
C467        C472   1.392       .  A
C467        H474   1.082       .  S
C468        C469   1.417       .  A
C469        C470   1.401       .  A
C469       Br476   1.921       .  S
C470        C471   1.401       .  A
C470        H475   1.083       .  S
C471        C472   1.405       .  A
C472       Br473   1.921       .  S
C477        C478   1.399       .  A
C477        C482   1.394       .  A
C477        H484   1.084       .  S
C478        C479   1.407       .  A
C479        C480   1.402       .  A
C479       Br486   1.919       .  S
C480        C481   1.408       .  A
C480        H485   1.083       .  S
C481        C482   1.414       .  A
C482       Br483   1.923       .  S
C487        C488   1.410       .  A
C487        C492   1.401       .  A
C487        H494   1.083       .  S
C488        C489   1.414       .  A
C489        C490   1.394       .  A
C489       Br496   1.922       .  S
C490        C491   1.399       .  A
C490        H495   1.084       .  S
C491        C492   1.404       .  A
C492       Br493   1.918       .  S
C497        C498   1.399       .  A
C497        C502   1.405       .  A
C497        H504   1.083       .  S
C498        C499   1.401       .  A
C499        C500   1.395       .  A
C499       Br506   1.922       .  S
C500        C501   1.414       .  A
C500        H505   1.074       .  S
C501        C502   1.425       .  A
C502       Br503   1.923       .  S
C507        C508   1.407       .  A
C507        C512   1.401       .  A
C507        H514   1.084       .  S
C508        C509   1.413       .  A
C509        C510   1.401       .  A
C509       Br516   1.920       .  S
C510        C511   1.407       .  A
C510        H515   1.084       .  S
C511        C512   1.409       .  A
C512       Br513   1.917       .  S
C517        C518   1.403       .  A
C517        C522   1.395       .  A
C517        H524   1.085       .  S
C518        C519   1.412       .  A
C519        C520   1.402       .  A
C519       Br526   1.919       .  S
C520        C521   1.402       .  A
C520        H525   1.084       .  S
C521        C522   1.405       .  A
C522       Br523   1.919       .  S
C527        C528   1.407       .  A
C527        C532   1.401       .  A
C527        H534   1.083       .  S
C528        C529   1.410       .  A
C529        C530   1.395       .  A
C529       Br536   1.922       .  S
C530        C531   1.402       .  A
C530        H535   1.084       .  S
C531        C532   1.405       .  A
C532       Br533   1.917       .  S
C537        C538   1.405       .  A
C537        C542   1.394       .  A
C537        H544   1.083       .  S
C538        C539   1.418       .  A
C539        C540   1.405       .  A
C539       Br546   1.920       .  S
C540        C541   1.402       .  A
C540        H545   1.083       .  S
C541        C542   1.408       .  A
C542       Br543   1.922       .  S
C547        C548   1.401       .  A
C547        C552   1.404       .  A
C547        H554   1.085       .  S
C548        C549   1.406       .  A
C549        C550   1.394       .  A
C549       Br556   1.921       .  S
C550        C551   1.404       .  A
C550        H555   1.085       .  S
C551        C552   1.416       .  A
C552       Br553   1.919       .  S
C557        C558   1.404       .  A
C557        C562   1.392       .  A
C557        H564   1.083       .  S
C558        C559   1.420       .  A
C559        C560   1.408       .  A
C559       Br566   1.920       .  S
C560        C561   1.403       .  A
C560        H565   1.083       .  S
C561        C562   1.409       .  A
C562       Br563   1.919       .  S
C567        C568   1.409       .  A
C567        C572   1.405       .  A
C567        H574   1.083       .  S
C568        C569   1.412       .  A
C569        C570   1.397       .  A
C569       Br576   1.921       .  S
C570        C571   1.402       .  A
C570        H575   1.084       .  S
C571        C572   1.406       .  A
C572       Br573   1.918       .  S
C577        C578   1.405       .  A
C577        C582   1.402       .  A
C577        H584   1.083       .  S
C578        C579   1.411       .  A
C579        C580   1.396       .  A
C579       Br586   1.922       .  S
C580        C581   1.401       .  A
C580        H585   1.084       .  S
C581        C582   1.407       .  A
C582       Br583   1.918       .  S
C587        C588   1.404       .  A
C587        C592   1.394       .  A
C587        H594   1.084       .  S
C588        C589   1.419       .  A
C589        C590   1.403       .  A
C589       Br596   1.921       .  S
C590        C591   1.400       .  A
C590        H595   1.084       .  S
C591        C592   1.407       .  A
C592       Br593   1.921       .  S
C597        C598   1.407       .  A
C597        C602   1.408       .  A
C597        H604   1.082       .  S
C598        C599   1.421       .  A
C599        C600   1.398       .  A
C599       Br606   1.921       .  S
C600        C601   1.397       .  A
C600        H605   1.084       .  S
C601        C602   1.410       .  A
C602       Br603   1.917       .  S
C607        C608   1.403       .  A
C607        C612   1.404       .  A
C607        H614   1.082       .  S
C608        C609   1.414       .  A
C609        C610   1.403       .  A
C609       Br616   1.920       .  S
C610        C611   1.401       .  A
C610        H615   1.083       .  S
C611        C612   1.409       .  A
C612       Br613   1.917       .  S
C617        C618   1.400       .  A
C617        C622   1.402       .  A
C617        H624   1.083       .  S
C618        C619   1.405       .  A
C619        C620   1.397       .  A
C619       Br626   1.916       .  S
C620        C621   1.408       .  A
C620        H625   1.083       .  S
C621        C622   1.420       .  A
C622       Br623   1.922       .  S
C627        C628   1.401       .  A
C627        C632   1.399       .  A
C627        H634   1.084       .  S
C628        C629   1.413       .  A
C629        C630   1.401       .  A
C629       Br636   1.924       .  S
C630        C631   1.412       .  A
C630        H635   1.078       .  S
C631        C632   1.422       .  A
C632       Br633   1.921       .  S
C637        C638   1.415   1_455  A
C637        C642   1.397       .  A
C637        H644   1.078       .  S
C638        C639   1.424       .  A
C639        C640   1.401       .  A
C639       Br646   1.923       .  S
C640        C641   1.397   1_655  A
C640        H645   1.084       .  S
C641        C642   1.401       .  A
C642       Br643   1.921       .  S
C647        C648   1.405       .  A
C647        C652   1.394       .  A
C647        H654   1.083       .  S
C648        C649   1.417   1_455  A
C649        C650   1.407       .  A
C649       Br656   1.919       .  S
C650        C651   1.404   1_655  A
C650        H655   1.084       .  S
C651        C652   1.408       .  A
C652       Br653   1.915       .  S
C657        C658   1.402       .  A
C657        C662   1.392       .  A
C657        H664   1.083       .  S
C658        C659   1.412       .  A
C659        C660   1.402       .  A
C659       Br666   1.916       .  S
C660        C661   1.402       .  A
C660        H665   1.083       .  S
C661        C662   1.404       .  A
C662       Br663   1.915       .  S
C667        C668   1.404       .  A
C667        C672   1.392       .  A
C667        H674   1.084       .  S
C668        C669   1.418       .  A
C669        C670   1.405       .  A
C669       Br676   1.921       .  S
C670        C671   1.401       .  A
C670        H675   1.084       .  S
C671        C672   1.407       .  A
C672       Br673   1.921       .  S
C677        C678   1.402       .  A
C677        C682   1.404       .  A
C677        H684   1.083       .  S
C678        C679   1.404       .  A
C679        C680   1.393       .  A
C679       Br686   1.915   1_545  S
C680        C681   1.402       .  A
C680        H685   1.083       .  S
C681        C682   1.414       .  A
C682       Br683   1.916       .  S
C687        C688   1.404       .  A
C687        C692   1.390       .  A
C687        H694   1.082       .  S
C688        C689   1.418       .  A
C689        C690   1.403       .  A
C689       Br696   1.921       .  S
C690        C691   1.401       .  A
C690        H695   1.082       .  S
C691        C692   1.406       .  A
C692       Br693   1.921       .  S
C697        C698   1.405       .  A
C697        C702   1.397       .  A
C697        H704   1.083       .  S
C698        C699   1.418       .  A
C699        C700   1.403       .  A
C699       Br706   1.920       .  S
C700        C701   1.401       .  A
C700        H705   1.083       .  S
C701        C702   1.408       .  A
C702       Br703   1.916       .  S
C707        C708   1.404       .  A
C707        C712   1.400       .  A
C707        H714   1.084       .  S
C708        C709   1.410       .  A
C709        C710   1.398       .  A
C709       Br716   1.921       .  S
C710        C711   1.401       .  A
C710        H715   1.084       .  S
C711        C712   1.405       .  A
C712       Br713   1.917       .  S
C717        C718   1.410       .  A
C717        C722   1.406       .  A
C717        H724   1.084       .  S
C718        C719   1.412       .  A
C719        C720   1.394       .  A
C719       Br726   1.922       .  S
C720        C721   1.400       .  A
C720        H725   1.084       .  S
C721        C722   1.407       .  A
C722       Br723   1.918       .  S
C727        C728   1.404       .  A
C727        C732   1.396       .  A
C727        H734   1.083       .  S
C728        C729   1.418       .  A
C729        C730   1.405       .  A
C729       Br736   1.919       .  S
C730        C731   1.401       .  A
C730        H735   1.082       .  S
C731        C732   1.406       .  A
C732       Br733   1.915       .  S
