geometry optimzed in LAMMPS
_audit_creation_date              2020-12-01 
_audit_creation_method            'lammps2cif' 
_symmetry_space_group_name_H-M    'P1' 
_symmetry_Int_Tables_number       1 
_symmetry_cell_setting            triclinic 
loop_ 
_symmetry_equiv_pos_as_xyz 
  x,y,z 
_cell_length_a                    54.03396911 
_cell_length_b                    53.91386071880186 
_cell_length_c                    44.131523039053874 
_cell_angle_alpha                 110.79754009646032 
_cell_angle_beta                  72.93088093034726 
_cell_angle_gamma                 128.2875242210945 
loop_ 
_atom_site_label 
_atom_site_type_symbol 
_atom_site_fract_x 
_atom_site_fract_y 
_atom_site_fract_z 
_atom_site_charge 
C1          C  0.31173983  0.11391742  0.97753521     0.03700
C2          C  0.27867123  0.09508701  0.98443777    -0.12500
C3          C  0.26157888  0.10756352  0.98703726     0.01200
C4          C  0.27815816  0.13953105  0.98378260    -0.11000
C5          C  0.31121619  0.15848998  0.97638387     0.03700
C6          C  0.32778927  0.14530729  0.97317674    -0.10400
H7          H  0.26626133  0.07044623  0.98666021     0.09300
H8          H  0.26509246  0.14924736  0.98589873     0.06800
H9          H  0.35316684  0.15910557  0.96666778     0.06600
C10         C  0.36036678  0.16412786  0.22542810     0.03700
C11         C  0.37856313  0.19821014  0.23523878    -0.12500
C12         C  0.36572610  0.21505376  0.23789722     0.01200
C13         C  0.33421783  0.19731949  0.23116526    -0.11000
C14         C  0.31569954  0.16325959  0.22120127     0.03700
C15         C  0.32903688  0.14693682  0.21854040    -0.10400
H16         H  0.40294099  0.21162396  0.23988337     0.09300
H17         H  0.32437085  0.21017064  0.23279012     0.06800
H18         H  0.31527232  0.12076499  0.21051850     0.06600
C19         C  0.18439067  0.36664057  0.30834871     0.03700
C20         C  0.21715358  0.38367311  0.29904010    -0.12500
C21         C  0.23313667  0.36961583  0.29499818     0.01200
C22         C  0.21551317  0.33778625  0.29927486    -0.11000
C23         C  0.18271071  0.32041132  0.30830608     0.03700
C24         C  0.16735894  0.33507868  0.31268062    -0.10400
H25         H  0.23023705  0.40823143  0.29624862     0.09300
H26         H  0.22743983  0.32673805  0.29656792     0.06800
H27         H  0.14221308  0.32237409  0.32041948     0.06600
C28         C  0.14382063  0.32604897  0.05750720     0.03700
C29         C  0.17559286  0.34399155  0.06339628    -0.12500
C30         C  0.18956454  0.32811345  0.05984238     0.01200
C31         C  0.17157137  0.29414745  0.05020858    -0.11000
C32         C  0.13975030  0.27577120  0.04425010     0.03700
C33         C  0.12622964  0.29206010  0.04738023    -0.10400
H34         H  0.18911435  0.37019761  0.07166195     0.09300
H35         H  0.18229260  0.28207886  0.04839633     0.06800
H36         H  0.10163157  0.27832572  0.04335728     0.06600
O37         O  0.07714641  0.47601445  0.33511651    -0.74800
O38         O  0.06647990  0.46936467  0.38684846    -0.53700
C39         C  0.07848786  0.46637776  0.35714831     0.79000
O40         O  0.09086314  0.11862816  0.38115419    -0.59400
O41         O  0.04663865  0.09722961  0.35848103    -0.52400
C42         C  0.07497490  0.12045389  0.36627967     0.71000
O43         O  0.11663302  0.08126168  0.43449135    -0.73900
O44         O  0.09190491  0.52839353  0.43923781    -0.54500
C45         C  0.11618673  0.06126106  0.44450706     0.77000
O46         O  0.03839856  0.50642281  0.28600052    -0.59100
O47         O  0.51625840  0.53440271  0.30712389    -0.52200
C48         C  0.52657823  0.51965934  0.28332469     0.73600
Zr49       Zr  0.05172015  0.49944297  0.33013040     2.54700
O50         O  0.10300944  0.52950372  0.29940635    -0.79600
O51         O  0.53345369  0.44928380  0.29012477    -0.93000
Zr52       Zr  0.08472085  0.07919134  0.40301096     2.64700
O53         O  0.13691697  0.10202846  0.37245735    -0.98000
O54         O  0.10301053  0.12905308  0.44542857    -0.80100
O55         O  0.07576614  0.52725817  0.37982244    -0.83400
O56         O  0.06137098  0.05131533  0.35295418    -2.18100
O57         O  0.43731318  0.45751326  0.35000862    -0.66800
O58         O  0.45837818  0.50868681  0.34681098    -0.51400
C59         C  0.43704581  0.47790203  0.34159980     0.72000
O60         O  0.49945645  0.02039849  0.49737969    -0.59700
O61         O  0.02745524  0.49590380  0.47651606    -0.51700
C62         C  0.51448927  0.50845283  0.50075481     0.73800
O63         O  0.47497134  0.06276699  0.44841959    -0.71100
O64         O  0.48638066  0.06999334  0.39681415    -0.49800
C65         C  0.47429114  0.07296068  0.42652760     0.75200
O66         O  0.46276486  0.42087388  0.40570143    -0.66400
O67         O  0.50771136  0.44214963  0.42683425    -0.53600
C68         C  0.47904922  0.41918621  0.42017168     0.73500
Zr69       Zr  0.46797802  0.45911556  0.38260134     2.77500
O70         O  0.41731888  0.43937959  0.41591923    -0.97200
O71         O  0.44550578  0.40733860  0.34270936    -0.78000
Zr72       Zr  0.49781125  0.03689535  0.45293313     2.70100
O73         O  0.44728612  0.51253454  0.48348114    -0.79300
O74         O  0.02373084  0.08687244  0.49693576    -0.98300
Zr75       Zr  0.04021452  0.49499182  0.41861848     2.21500
Zr76       Zr  0.51222979  0.04377234  0.36500692     2.11100
O77         O  0.47505195  0.50994491  0.40493604    -2.47000
O78         O  0.49172068  0.48734387  0.43206823    -0.79000
O79         O  0.50163869  0.49052490  0.34322558    -0.71200
O80         O  0.05086947  0.04753330  0.44227440    -2.32200
O81         O  0.51814700  0.46765874  0.36977070    -2.28400
O82         O  0.03448156  0.07052149  0.41544829    -0.73000
H83         H  0.07413042  0.06427486  0.33690630     0.79000
H84         H  0.06048341  0.05785088  0.46242699     0.80100
H85         H  0.45487952  0.50679686  0.40854701     0.82300
H86         H  0.51540878  0.44700285  0.36199690     0.79900
H87         H  0.09406354  0.12179150  0.46611264     0.43000
H88         H  0.03237692  0.10463640  0.48649890     0.41900
H89         H  0.43342732  0.50931937  0.46988008     0.41600
H90         H  0.40676029  0.41571492  0.41180657     0.39500
H91         H  0.45987405  0.41254667  0.32246678     0.42700
H92         H  0.55027321  0.45501605  0.27167143     0.37500
H93         H  0.10479204  0.51258034  0.28254239     0.43600
H94         H  0.14288181  0.08763425  0.37128350     0.40000
H95         H  0.42286692  0.44800198  0.43859519     0.44900
H96         H  0.05084623  0.45603328  0.26921984     0.43600
H97         H  0.13298540  0.09737205  0.34989399     0.43800
H98         H  0.45141536  0.03200243  0.00699479     0.44100
O99         O  0.03175686  0.43053238  0.08346316    -0.74800
O100        O  0.04634476  0.44935553  0.13485134    -0.53700
C101        C  0.04496472  0.43286184  0.10526715     0.79000
O102        O  0.05621420  0.07768905  0.09853620    -0.59400
O103        O  0.00470030  0.05329433  0.09222240    -0.52400
C104        C  0.03457734  0.07568877  0.08897854     0.71000
O105        O  0.10447809  0.05904423  0.14704638    -0.73900
O106        O  0.08346326  0.51656453  0.17037640    -0.54500
C107        C  0.10860997  0.04516120  0.16164845     0.77000
O108        O  0.98554807  0.45283768  0.03643267    -0.59100
O109        O  0.46492634  0.98215571  0.05665052    -0.52200
C110        C  0.47256911  0.46550272  0.03330737     0.73600
Zr111      Zr  0.00556543  0.45362640  0.08065884     2.54700
O112        O  0.04677502  0.46382608  0.03524206    -0.79600
O113        O  0.47032552  0.39669953  0.05359473    -0.93000
Zr114      Zr  0.06129352  0.04903518  0.12584041     2.64700
O115        O  0.09987900  0.05528513  0.07818001    -0.98000
O116        O  0.09462457  0.10664231  0.15115543    -0.80100
O117        O  0.04629449  0.49477335  0.11578635    -0.83400
O118        O  0.02253016  0.00868268  0.08886966    -2.18100
O119        O  0.39892913  0.42670608  0.13455551    -0.66800
O120        O  0.41642096  0.46701133  0.11075280    -0.51400
C121        C  0.39480555  0.43980863  0.11890125     0.72000
O122        O  0.51109929  0.02875874  0.24546129    -0.59700
O123        O  0.03166224  0.50043169  0.22548439    -0.51700
C124        C  0.52304063  0.51639526  0.24970701     0.73800
O125        O  0.46741495  0.05405938  0.19785259    -0.71100
O126        O  0.45289954  0.03556331  0.14643874    -0.49800
C127        C  0.45385284  0.05155038  0.17620185     0.75200
O128        O  0.44712869  0.41475658  0.19129831    -0.66400
O129        O  0.49901377  0.43594754  0.19161002    -0.53600
C130        C  0.46917859  0.41590420  0.19877096     0.73500
Zr131      Zr  0.44166519  0.43948715  0.15907372     2.77500
O132        O  0.40228622  0.43448217  0.20572867    -0.97200
O133        O  0.40918283  0.38075816  0.13890315    -0.78000
Zr134      Zr  0.49502178  0.03225682  0.20098593     2.70100
O135        O  0.45631948  0.52851007  0.24846344    -0.79300
O136        O  0.03121584  0.08844051  0.22734817    -0.98300
Zr137      Zr  0.02668670  0.48158076  0.16758497     2.21500
Zr138      Zr  0.47342336  0.00413033  0.11402985     2.11100
O139        O  0.45382412  0.49178263  0.16751182    -2.47000
O140        O  0.48208840  0.48065232  0.19378604    -0.79000
O141        O  0.45895747  0.45121232  0.10670242    -0.71200
O142        O  0.04220541  0.03538709  0.17732799    -2.32200
O143        O  0.48712920  0.44019387  0.13282604    -2.28400
O144        O  0.01463490  0.04676169  0.15010349    -0.73000
H145        H  0.02954303  0.01505148  0.06844351     0.79000
H146        H  0.05813846  0.05087242  0.19243770     0.80100
H147        H  0.43490400  0.49118655  0.17630138     0.82300
H148        H  0.48286146  0.41939675  0.13060135     0.79900
H149        H  0.08181663  0.10962033  0.17147638     0.43000
H150        H  0.03031249  0.10087447  0.21623928     0.41900
H151        H  0.43555081  0.51193598  0.23953108     0.41600
H152        H  0.41452893  0.44717939  0.22493202     0.39500
H153        H  0.42450262  0.37501690  0.12915037     0.42700
H154        H  0.46130465  0.38455529  0.07075556     0.37500
H155        H  0.06562139  0.48548076  0.04373512     0.43600
H156        H  0.09250340  0.05744308  0.06181007     0.40000
H157        H  0.39530413  0.44723422  0.20443958     0.44900
H158        H  0.98362288  0.39220907  0.03603124     0.43600
H159        H  0.11936937  0.07712624  0.08478881     0.43800
H160        H  0.55001782  0.09058365  0.23006786     0.44100
C161        C  0.07898905  0.14083181  0.04903770     0.20900
C162        C  0.10705603  0.16555533  0.03554352    -0.39000
C163        C  0.10697424  0.19127303  0.03497423     0.19900
C164        C  0.08081187  0.19225164  0.04671005     0.22500
C165        C  0.05241014  0.16713059  0.05977748    -0.39500
C166        C  0.05252395  0.14135539  0.06056095     0.21300
N167        N  0.07493711  0.11639309  0.05638680    -0.32800
C168        C  0.04575086  0.10105171  0.07275328    -0.10300
C169        C  0.03068846  0.11556388  0.07547293    -0.29100
N170        N  0.08852888  0.22165996  0.04840120    -0.45700
C171        C  0.12000160  0.23980310  0.03843217    -0.05000
C172        C  0.13198496  0.22115920  0.02897624    -0.22400
H173        H  0.13581501  0.21361119  0.62919564     0.19400
H174        H  0.03250875  0.16865799  0.07059631     0.18200
H175        H  0.00811429  0.10979276  0.08888863     0.14500
H176        H  0.16515499  0.26934141  0.60326835     0.14400
H177        H  0.09173934  0.11146769  0.05203945     0.32500
H178        H  0.07397866  0.22973290  0.05904381     0.35300
C179        C  0.26192321  0.35774641  0.08611251     0.20900
C180        C  0.28134979  0.35700539  0.10042282    -0.39000
C181        C  0.31281242  0.38429909  0.10159734     0.19900
C182        C  0.32418914  0.41022591  0.08913640     0.22500
C183        C  0.30469154  0.41100835  0.07485949    -0.39500
C184        C  0.27301125  0.38381076  0.07407110     0.21300
N185        N  0.23107196  0.33488619  0.08249420    -0.32800
C186        C  0.22217409  0.34639898  0.06823654    -0.10300
C187        C  0.24769814  0.37701476  0.06273101    -0.29100
N188        N  0.35493200  0.43330991  0.09358344    -0.45700
C189        C  0.36299849  0.42204404  0.10923575    -0.05000
C190        C  0.33737539  0.39150564  0.11456784    -0.22400
H191        H  0.27251759  0.33678112  0.11020962     0.19400
H192        H  0.31344691  0.43141075  0.06542958     0.18200
H193        H  0.24779576  0.39204661  0.05164021     0.14500
H194        H  0.33677748  0.37666644  0.12645017     0.14400
H195        H  0.24360762  0.31939557  0.52137388     0.32500
H196        H  0.36943411  0.45544402  0.08664735     0.35300
C197        C  0.09810055  0.35480023  0.06149572     0.20900
C198        C  0.07721041  0.35695692  0.05143036    -0.39000
C199        C  0.07298689  0.38121498  0.07149785     0.19900
C200        C  0.08797883  0.40116702  0.09963924     0.22500
C201        C  0.10888367  0.39913477  0.10953087    -0.39500
C202        C  0.11358397  0.37547023  0.08921955     0.21300
N203        N  0.10669480  0.33431346  0.04658263    -0.32800
C204        C  0.12824273  0.34257736  0.06467960    -0.10300
C205        C  0.13305033  0.36808132  0.09148725    -0.29100
N206        N  0.07990417  0.42190874  0.11480719    -0.45700
C207        C  0.05981403  0.41551283  0.09619177    -0.05000
C208        C  0.05495675  0.39034360  0.06877657    -0.22400
H209        H  0.06539595  0.34117241  0.02951913     0.19400
H210        H  0.12088747  0.41508849  0.13130784     0.18200
H211        H  0.14847132  0.37944885  0.11030629     0.14500
H212        H  0.03997866  0.37989700  0.04979867     0.14400
H213        H  0.09884748  0.31625745  0.02516592     0.32500
H214        H  0.08772170  0.43948727  0.13652570     0.35300
C215        C  0.15510720  0.24861111  0.33071860     0.20900
C216        C  0.15764140  0.22918152  0.34210502    -0.39000
C217        C  0.12923673  0.19958612  0.34685260     0.19900
C218        C  0.10039104  0.18980753  0.34057386     0.22500
C219        C  0.09780856  0.20947953  0.32943062    -0.39500
C220        C  0.12634548  0.23929994  0.32482054     0.21300
N221        N  0.17867117  0.27803499  0.32487174    -0.32800
C222        C  0.16500999  0.28795996  0.31532358    -0.10300
C223        C  0.13227345  0.26428754  0.31497404    -0.29100
N224        N  0.07703229  0.16025079  0.34666672    -0.45700
C225        C  0.09125481  0.15144553  0.35712200    -0.05000
C226        C  0.12374598  0.17544292  0.35761196    -0.22400
H227        H  0.18012035  0.23661549  0.34699562     0.19400
H228        H  0.07530331  0.20218589  0.32479940     0.18200
H229        H  0.11503296  0.26522690  0.30862653     0.14500
H230        H  0.14112439  0.17507069  0.36453886     0.14400
H231        H  0.20242252  0.29088940  0.32839944     0.32500
H232        H  0.05300090  0.14698001  0.34396723     0.35300
C233        C  0.31690050  0.42868419  0.29845319     0.20900
C234        C  0.34380386  0.45843761  0.31188508    -0.39000
C235        C  0.36920253  0.45765975  0.31236845     0.19900
C236        C  0.36773456  0.42933528  0.30046510     0.22500
C237        C  0.34134828  0.39998239  0.28624118    -0.39500
C238        C  0.31608447  0.40077782  0.28575600     0.21300
N239        N  0.28786717  0.42157454  0.30049429    -0.32800
C240        C  0.26833940  0.38881591  0.28953146    -0.10300
C241        C  0.28555802  0.37535824  0.27917803    -0.29100
N242        N  0.39246687  0.43348850  0.30822045    -0.45700
C243        C  0.40998714  0.46470523  0.32502385    -0.05000
C244        C  0.39662164  0.48082657  0.32765071    -0.22400
H245        H  0.34405487  0.47997974  0.32328437     0.19400
H246        H  0.33962656  0.37756504  0.27846296     0.18200
H247        H  0.27662227  0.34997146  0.27092694     0.14500
H248        H  0.40443113  0.50524225  0.34131578     0.14400
H249        H  0.28132474  0.43760921  0.31185604     0.32500
H250        H  0.39633210  0.41570993  0.30381355     0.35300
C251        C  0.11063884  0.42357646  0.35147116     0.20900
C252        C  0.11525529  0.40485518  0.36139756    -0.39000
C253        C  0.13684399  0.39839225  0.34092680     0.19900
C254        C  0.15291461  0.40999318  0.31292724     0.22500
C255        C  0.14811667  0.42857235  0.30290924    -0.39500
C256        C  0.12624654  0.43478134  0.32321663     0.21300
N257        N  0.09156620  0.43322884  0.36682020    -0.32800
C258        C  0.09486652  0.45056635  0.34815551    -0.10300
C259        C  0.11620426  0.45198460  0.32064368    -0.29100
N260        N  0.17228476  0.40057180  0.29782615    -0.45700
C261        C  0.16810451  0.38249506  0.31616539    -0.05000
C262        C  0.14622508  0.38062444  0.34324442    -0.22400
H263        H  0.10289180  0.39591502  0.38337823     0.19400
H264        H  0.16045241  0.43748501  0.28092344     0.18200
H265        H  0.12376469  0.46440710  0.30171482     0.14500
H266        H  0.13839969  0.36807452  0.36214929     0.14400
H267        H  0.07719762  0.42834011  0.38870410     0.32500
H268        H  0.18694526  0.40557109  0.27611913     0.35300
C269        C  0.38447925  0.11040166  0.19853062     0.20900
C270        C  0.38556394  0.08437128  0.17805160    -0.39000
C271        C  0.40692702  0.08104537  0.18490925     0.19900
C272        C  0.42565885  0.10182919  0.21043608     0.22500
C273        C  0.42477600  0.12816368  0.23082945    -0.39500
C274        C  0.40350753  0.13169403  0.22374916     0.21300
N275        N  0.36660739  0.11901684  0.19642167    -0.32800
C276        C  0.37434584  0.14625368  0.22024298    -0.10300
C277        C  0.39738413  0.15497411  0.23785442    -0.29100
N278        N  0.44434108  0.09355938  0.21134012    -0.45700
C279        C  0.43767448  0.06768438  0.18587022    -0.05000
C280        C  0.41439950  0.05915710  0.16894239    -0.22400
H281        H  0.37110256  0.06812626  0.15794887     0.19400
H282        H  0.43980019  0.14487412  0.25042929     0.18200
H283        H  0.40821255  0.17554365  0.25812495     0.14500
H284        H  0.40457131  0.03977086  0.14753634     0.14400
H285        H  0.35079947  0.10751731  0.17906947     0.32500
H286        H  0.46119006  0.10531611  0.22760310     0.35300
C287        C  0.42481733  0.29895895  0.23730120     0.20900
C288        C  0.45275953  0.32428766  0.22417025    -0.39000
C289        C  0.45283517  0.35088827  0.22611473     0.19900
C290        C  0.42694390  0.35208279  0.24008287     0.22500
C291        C  0.39931140  0.32712852  0.25382276    -0.39500
C292        C  0.39921467  0.30051524  0.25173799     0.21300
N293        N  0.41686413  0.26899503  0.23335130    -0.32800
C294        C  0.38579319  0.25108530  0.24470865    -0.10300
C295        C  0.37428850  0.27030023  0.25714792    -0.29100
N296        N  0.43063843  0.37694149  0.23399105    -0.45700
C297        C  0.45900417  0.39167398  0.21599839    -0.05000
C298        C  0.47390354  0.37656570  0.21113895    -0.22400
H299        H  0.47205358  0.32230336  0.21113980     0.19400
H300        H  0.37845272  0.32722105  0.26302822     0.18200
H301        H  0.35014499  0.26253671  0.26606813     0.14500
H302        H  0.49549623  0.38150073  0.19574542     0.14400
H303        H  0.43081184  0.26049470  0.22057932     0.32500
H304        H  0.41387993  0.38213243  0.23968013     0.35300
C305        C  0.18897149  0.10118729  0.18041756     0.20900
C306        C  0.21814160  0.13156217  0.18556812    -0.39000
C307        C  0.24081177  0.13255294  0.19620384     0.19900
C308        C  0.23497313  0.10537701  0.20119996     0.22500
C309        C  0.20563666  0.07495962  0.19629458    -0.39500
C310        C  0.18282263  0.07397826  0.18580836     0.21300
N311        N  0.16359054  0.09406445  0.17051464    -0.32800
C312        C  0.14087773  0.06216098  0.16988351    -0.10300
C313        C  0.15194838  0.04871994  0.17929871    -0.29100
N314        N  0.26061196  0.11274068  0.21092027    -0.45700
C315        C  0.28304123  0.14494600  0.21223806    -0.05000
C316        C  0.27133088  0.15803441  0.20321625    -0.22400
H317        H  0.22282740  0.15287732  0.18160148     0.19400
H318        H  0.20092704  0.05367834  0.20037284     0.18200
H319        H  0.13911285  0.02394925  0.18128276     0.14500
H320        H  0.28354603  0.18269219  0.20129060     0.14400
H321        H  0.16162722  0.11013184  0.16515925     0.32500
H322        H  0.26237879  0.09669812  0.21658668     0.35300
C323        C  0.42816411  0.10480886  0.46243978     0.18300
C324        C  0.35741049  0.05988536  0.98589968    -0.39000
C325        C  0.40152311  0.13047903  0.47911623     0.19900
C326        C  0.41946351  0.14711610  0.45454146     0.22500
C327        C  0.44177333  0.14270677  0.43251904    -0.39500
C328        C  0.44521747  0.12076104  0.43727953     0.21300
N329        N  0.43644287  0.08576048  0.46199538    -0.32800
C330        C  0.45856761  0.08942341  0.43612541    -0.10300
C331        C  0.46449590  0.11086248  0.41997569    -0.29100
N332        N  0.41123022  0.16587851  0.45430401    -0.45700
C333        C  0.38738542  0.16084962  0.47843295    -0.05000
C334        C  0.32863180  0.08515255  0.99268542    -0.22400
H335        H  0.34812320  0.05242328  0.00875234     0.19400
H336        H  0.45524309  0.15523228  0.41289668     0.18200
H337        H  0.48101661  0.11851062  0.39873915     0.14500
H338        H  0.31500463  0.08153034  0.01616070     0.14400
H339        H  0.38287788  0.02616268  0.98359262     0.32500
H340        H  0.42039971  0.18016980  0.43769377     0.35300
C341        C  0.39986448  0.29110300  0.45521539     0.20900
C342        C  0.39759655  0.30961959  0.44203958    -0.39000
C343        C  0.42549105  0.34012989  0.43936661     0.19900
C344        C  0.45368263  0.35160953  0.44910648     0.22500
C345        C  0.45596707  0.33299741  0.46242708    -0.39500
C346        C  0.42787237  0.30221653  0.46502953     0.21300
N347        N  0.37664492  0.26110840  0.45968300    -0.32800
C348        C  0.38965193  0.25267631  0.47257253    -0.10300
C349        C  0.42173118  0.27779846  0.47619807    -0.29100
N350        N  0.47678566  0.38143685  0.44355262    -0.45700
C351        C  0.46297324  0.38865280  0.43007424    -0.05000
C352        C  0.43104065  0.36349083  0.42723524    -0.22400
H353        H  0.37569175  0.30080215  0.43422675     0.19400
H354        H  0.47794403  0.34169395  0.46995956     0.18200
H355        H  0.43834007  0.27823811  0.48572297     0.14500
H356        H  0.41408959  0.36245648  0.41759153     0.14400
H357        H  0.35355694  0.24705234  0.45338984     0.32500
H358        H  0.50037334  0.39586513  0.44850178     0.35300
C359        C  0.23725265  0.11169394  0.48703406     0.20900
C360        C  0.21021882  0.08181597  0.47397273    -0.39000
C361        C  0.18463145  0.08240006  0.47366677     0.19900
C362        C  0.18604903  0.11068962  0.48531255     0.22500
C363        C  0.21263068  0.14024282  0.49913031    -0.39500
C364        C  0.23806115  0.13960308  0.49949052     0.21300
N365        N  0.26626961  0.11878183  0.48524074    -0.32800
C366        C  0.28576807  0.15152879  0.49618581    -0.10300
C367        C  0.26859856  0.16502992  0.50613616    -0.29100
N368        N  0.16099921  0.10619017  0.47776938    -0.45700
C369        C  0.14331932  0.07478085  0.46135820    -0.05000
C370        C  0.15694000  0.05892981  0.45883127    -0.22400
H371        H  0.20992046  0.06023065  0.46283290     0.19400
H372        H  0.21429772  0.16262787  0.50683924     0.18200
H373        H  0.27761197  0.19044390  0.51446284     0.14500
H374        H  0.14915103  0.03447342  0.44537237     0.14400
H375        H  0.27284011  0.10273511  0.47434246     0.32500
H376        H  0.15705678  0.12387283  0.48195504     0.35300
C377        C  0.37034456  0.17567673  0.48431021     0.03700
C378        C  0.33711493  0.15761016  0.49067516    -0.12500
C379        C  0.32100577  0.17080580  0.49184963     0.01200
C380        C  0.33869189  0.20225258  0.48660690    -0.11000
C381        C  0.37181308  0.22056168  0.48039556     0.03700
C382        C  0.38744690  0.20722916  0.47981399    -0.10400
H383        H  0.32387519  0.13308216  0.49362566     0.09300
H384        H  0.32657594  0.21236786  0.48668907     0.06800
H385        H  0.41296286  0.22090682  0.47454372     0.06600
C386        C  0.33500471  0.13915058  0.72502368     0.03700
C387        C  0.35137474  0.16975980  0.71835870    -0.12500
C388        C  0.33510746  0.18244327  0.71893388     0.01200
C389        C  0.30222658  0.16445547  0.72683549    -0.11000
C390        C  0.28541810  0.13398836  0.73399038     0.03700
C391        C  0.30199233  0.12143157  0.73313413    -0.10400
H392        H  0.37674557  0.18334731  0.71184385     0.09300
H393        H  0.28961262  0.17402182  0.72672249     0.06800
H394        H  0.28918147  0.09764326  0.73787851     0.06600
C395        C  0.12480698  0.30460644  0.80111387     0.03700
C396        C  0.15778433  0.32217501  0.79299133    -0.12500
C397        C  0.17394783  0.30840593  0.78952157     0.01200
C398        C  0.15640352  0.27653732  0.79359285    -0.11000
C399        C  0.12349449  0.25887117  0.80213580     0.03700
C400        C  0.10788576  0.27304377  0.80543976    -0.10400
H401        H  0.17084729  0.34685225  0.79056235     0.09300
H402        H  0.16858613  0.26584630  0.79129081     0.06800
H403        H  0.08263703  0.26009679  0.81264363     0.06600
C404        C  0.15016660  0.33100891  0.55468617     0.03700
C405        C  0.18334748  0.34910095  0.54760673    -0.12500
C406        C  0.20005062  0.33667411  0.54688319     0.01200
C407        C  0.18318242  0.30590304  0.55331573    -0.11000
C408        C  0.15013765  0.28748904  0.55998531     0.03700
C409        C  0.13373743  0.29982207  0.55996528    -0.10400
H410        H  0.19633930  0.37330796  0.54391477     0.09300
H411        H  0.19577553  0.29657022  0.55423046     0.06800
H412        H  0.10824968  0.28568393  0.56566999     0.06600
O413        O  0.01661129  0.41397420  0.83171213    -0.74800
O414        O  0.00818968  0.40930404  0.88387997    -0.53700
C415        C  0.01912984  0.40534436  0.85378928     0.79000
O416        O  0.03425702  0.05849710  0.87660992    -0.59400
O417        O  0.98940492  0.03844274  0.85606186    -0.52400
C418        C  0.01813678  0.06095043  0.86282585     0.71000
O419        O  0.05922892  0.01739704  0.92692003    -0.73900
O420        O  0.03496694  0.46777770  0.93457896    -0.54500
C421        C  0.05792624  0.99660582  0.93653176     0.77000
O422        O  0.98529497  0.45129720  0.78355834    -0.59100
O423        O  0.46042353  0.47686746  0.80356852    -0.52200
C424        C  0.47341403  0.46493174  0.77980080     0.73600
Zr425      Zr  0.99056874  0.43689691  0.82762105     2.54700
O426        O  0.04049199  0.45989854  0.79302480    -0.79600
O427        O  0.46482540  0.38474221  0.78614249    -0.93000
Zr428      Zr  0.02791393  0.01831093  0.89727962     2.64700
O429        O  0.07825242  0.03847696  0.86327040    -0.98000
O430        O  0.05261222  0.06955882  0.93770013    -0.80100
O431        O  0.01710657  0.46611195  0.87582303    -0.83400
O432        O  0.00204340  0.99025878  0.84899973    -2.18100
O433        O  0.37765692  0.39637520  0.84486961    -0.66800
O434        O  0.39965273  0.44769102  0.84136078    -0.51400
C435        C  0.37816861  0.41691776  0.83570059     0.72000
O436        O  0.45485704  0.97290685  0.99634314    -0.59700
O437        O  0.97756443  0.44531196  0.97559103    -0.51700
C438        C  0.46713152  0.46032804  0.99960053     0.73800
O439        O  0.42197333  0.00789865  0.94799658    -0.71100
O440        O  0.42840181  0.01008158  0.89522874    -0.49800
C441        C  0.41944472  0.01621354  0.92568878     0.75200
O442        O  0.39868534  0.36082925  0.90712711    -0.66400
O443        O  0.44410027  0.38054193  0.92621353    -0.53600
C444        C  0.41482406  0.35864054  0.92124146     0.73500
Zr445      Zr  0.40641713  0.39840153  0.88066472     2.77500
O446        O  0.35504994  0.38101084  0.91180286    -0.97200
O447        O  0.38340995  0.34475900  0.84397624    -0.78000
Zr448      Zr  0.44440155  0.98126878  0.95132645     2.70100
O449        O  0.39198459  0.45303763  0.98328336    -0.79300
O450        O  0.96455971  0.03123677  0.99501641    -0.98300
Zr451      Zr  0.98279525  0.43599366  0.91658232     2.21500
Zr452      Zr  0.45171484  0.98153712  0.86222995     2.11100
O453        O  0.41592728  0.45036563  0.90238694    -2.47000
O454        O  0.43136768  0.42677617  0.92977420    -0.79000
O455        O  0.43987689  0.42800275  0.83973909    -0.71200
O456        O  0.99412041  0.98873820  0.93776470    -2.32200
O457        O  0.45566667  0.40490584  0.86706173    -2.28400
O458        O  0.97888250  0.01254972  0.91176108    -0.73000
H459        H  0.01475935  0.00287176  0.83266334     0.79000
H460        H  0.00532468  0.99985711  0.95690928     0.80100
H461        H  0.39616476  0.44812115  0.90634547     0.82300
H462        H  0.45193286  0.38381298  0.85974798     0.79900
H463        H  0.03778066  0.06486504  0.95773465     0.43000
H464        H  0.95232436  0.02390627  0.01537656     0.41900
H465        H  0.39721197  0.46335506  0.00614055     0.41600
H466        H  0.34032314  0.35843058  0.89995320     0.39500
H467        H  0.40116539  0.34657060  0.82758482     0.42700
H468        H  0.47771870  0.39030615  0.76532354     0.37500
H469        H  0.03807828  0.44122108  0.77531417     0.43600
H470        H  0.08137291  0.02101704  0.85742288     0.40000
H471        H  0.35673515  0.37876624  0.93229706     0.44900
H472        H  0.98106000  0.38635777  0.77077080     0.43600
H473        H  0.07400243  0.03805623  0.84268167     0.43800
H474        H  0.50018632  0.08254808  0.51207872     0.44100
O475        O  0.05238390  0.45130127  0.58528136    -0.74800
O476        O  0.03768617  0.43999152  0.63544003    -0.53700
C477        C  0.05198881  0.43957766  0.60651682     0.79000
O478        O  0.05526952  0.08937764  0.64017012    -0.59400
O479        O  0.01389186  0.06653849  0.61187379    -0.52400
C480        C  0.04032006  0.09072915  0.62347493     0.71000
O481        O  0.07952806  0.04729829  0.68945372    -0.73900
O482        O  0.05849336  0.49660276  0.69047000    -0.54500
C483        C  0.07922409  0.02625235  0.69723540     0.77000
O484        O  0.02105907  0.48864145  0.53644299    -0.59100
O485        O  0.49153355  0.01162743  0.55732862    -0.52200
C486        C  0.50970629  0.50317315  0.53339867     0.73600
Zr487      Zr  0.02561401  0.47349613  0.58040336     2.54700
O488        O  0.07751955  0.50054252  0.54974617    -0.79600
O489        O  0.50423400  0.42345214  0.53507131    -0.93000
Zr490      Zr  0.04919097  0.04796542  0.65870466     2.64700
O491        O  0.10378466  0.07826360  0.63443690    -0.98000
O492        O  0.06079875  0.09253326  0.70652127    -0.80100
O493        O  0.04548082  0.49941010  0.63245243    -0.83400
O494        O  0.03143960  0.02322366  0.60594171    -2.18100
O495        O  0.40810598  0.42522862  0.58956595    -0.66800
O496        O  0.42898653  0.47701183  0.58876847    -0.51400
C497        C  0.40818368  0.44606020  0.58162907     0.72000
O498        O  0.46503554  0.98178007  0.74403522    -0.59700
O499        O  0.99390886  0.46115269  0.72430815    -0.51700
C500        C  0.47681620  0.46911986  0.74690927     0.73800
O501        O  0.43998762  0.02794706  0.70042012    -0.71100
O502        O  0.45131129  0.03586093  0.64911503    -0.49800
C503        C  0.44011137  0.03936931  0.67914680     0.75200
O504        O  0.42901086  0.38379991  0.64406467    -0.66400
O505        O  0.47196489  0.40513386  0.66898585    -0.53600
C506        C  0.44434397  0.38175668  0.65954236     0.73500
Zr507      Zr  0.43622198  0.42477689  0.62345277     2.77500
O508        O  0.38236965  0.39945190  0.65039823    -0.97200
O509        O  0.42007911  0.37695640  0.57860319    -0.78000
Zr510      Zr  0.46070158  0.99883518  0.70177788     2.70100
O511        O  0.40671247  0.46795406  0.72353409    -0.79300
O512        O  0.97370359  0.04400229  0.74811808    -0.98300
Zr513      Zr  0.00849885  0.46267990  0.66705295     2.21500
Zr514      Zr  0.47676043  0.00978809  0.61479934     2.11100
O515        O  0.44105188  0.47433618  0.64885049    -2.47000
O516        O  0.45546458  0.44929550  0.67542568    -0.79000
O517        O  0.47239694  0.46015416  0.58780780    -0.71200
O518        O  0.01278877  0.01207572  0.69371548    -2.32200
O519        O  0.48709161  0.43545264  0.61436326    -2.28400
O520        O  0.99777399  0.03559866  0.66620959    -0.73000
H521        H  0.04538787  0.03807062  0.59172946     0.79000
H522        H  0.02075263  0.02124764  0.71469528     0.80100
H523        H  0.42079635  0.47077225  0.65119775     0.82300
H524        H  0.48508910  0.41515834  0.60546815     0.79900
H525        H  0.03982661  0.08606358  0.71869159     0.43000
H526        H  0.95452285  0.03528478  0.76380390     0.41900
H527        H  0.40339828  0.48436465  0.73913580     0.41600
H528        H  0.38110694  0.41771359  0.66425845     0.39500
H529        H  0.43660475  0.38506325  0.56037374     0.42700
H530        H  0.52206189  0.42954719  0.51762973     0.37500
H531        H  0.08624887  0.52392641  0.55741678     0.43600
H532        H  0.11207687  0.06608524  0.63392121     0.40000
H533        H  0.36865090  0.38960122  0.63296166     0.44900
H534        H  0.98477360  0.41792109  0.53400677     0.43600
H535        H  0.10202064  0.07452139  0.61129318     0.43800
H536        H  0.49671943  0.05000691  0.75393628     0.44100
C537        C  0.08993519  0.17171187  0.61237180     0.20900
C538        C  0.11740537  0.20347464  0.61435749    -0.39000
C539        C  0.11976824  0.22102461  0.59539618     0.19900
C540        C  0.09638607  0.20812534  0.57621991     0.22500
C541        C  0.06890322  0.17627281  0.57414206    -0.39500
C542        C  0.06665281  0.15860878  0.59295144     0.21300
N543        N  0.08291028  0.14958539  0.62671751    -0.32800
C544        C  0.05504996  0.12208462  0.61619978    -0.10300
C545        C  0.04403035  0.12682877  0.59528864    -0.29100
N546        N  0.10427188  0.22995518  0.56080161    -0.45700
C547        C  0.13304547  0.25675580  0.56997409    -0.05000
C548        C  0.14347222  0.25206949  0.59149505    -0.22400
H549        H  0.12821045  0.16590694  0.02826962     0.19400
H550        H  0.05082786  0.16588325  0.55872813     0.18200
H551        H  0.02301246  0.10904593  0.58246198     0.14500
H552        H  0.15634437  0.22908825  0.02170210     0.14400
H553        H  0.09676785  0.15269902  0.64182753     0.32500
H554        H  0.09101237  0.22679486  0.54493433     0.35300
C555        C  0.28250816  0.36883363  0.53527049     0.20900
C556        C  0.30814157  0.36695445  0.53074579    -0.39000
C557        C  0.33645709  0.39597203  0.54204007     0.19900
C558        C  0.33926328  0.42489771  0.55640805     0.22500
C559        C  0.31358591  0.42678227  0.56074484    -0.39500
C560        C  0.28512055  0.39762742  0.54968387     0.21300
N561        N  0.25223835  0.34386284  0.53057466    -0.32800
C562        C  0.23519763  0.35662598  0.54233077    -0.10300
C563        C  0.25504929  0.39025466  0.55401732    -0.29100
N564        N  0.36704844  0.44772670  0.56943052    -0.45700
C565        C  0.38154991  0.43293070  0.56412708    -0.05000
C566        C  0.36344278  0.40085282  0.54653823    -0.22400
H567        H  0.30559318  0.34407951  0.52124157     0.19400
H568        H  0.31507584  0.44882194  0.57371248     0.18200
H569        H  0.24810374  0.40665461  0.56659510     0.14500
H570        H  0.36789456  0.38259802  0.54086609     0.14400
H571        H  0.21682810  0.31301094  0.08989551     0.32500
H572        H  0.37408913  0.47074218  0.58405565     0.35300
C573        C  0.12264438  0.37856504  0.56007563     0.20900
C574        C  0.12358431  0.40338571  0.55478954    -0.39000
C575        C  0.10009696  0.40802232  0.57317029     0.19900
C576        C  0.07780395  0.38964401  0.59544103     0.22500
C577        C  0.07660348  0.36461844  0.60039947    -0.39500
C578        C  0.09975626  0.35973624  0.58173477     0.21300
N579        N  0.14302894  0.37018011  0.54676276    -0.32800
C580        C  0.13294002  0.34570669  0.55996222    -0.10300
C581        C  0.10579358  0.33842486  0.58169230    -0.29100
N582        N  0.05851929  0.39912695  0.61035725    -0.45700
C583        C  0.06808758  0.42333834  0.59715173    -0.05000
C584        C  0.09399127  0.42961786  0.57379019    -0.22400
H585        H  0.14141071  0.41814143  0.53782591     0.19400
H586        H  0.05908681  0.35018937  0.61774376     0.18200
H587        H  0.09307333  0.32105130  0.59680225     0.14500
H588        H  0.10667453  0.44759180  0.55939344     0.14400
H589        H  0.16281438  0.38084576  0.53011476     0.32500
H590        H  0.03953496  0.38925888  0.62802493     0.35300
C591        C  0.09683074  0.18839850  0.82659736     0.20900
C592        C  0.09993994  0.16938180  0.83799127    -0.39000
C593        C  0.07178435  0.13981435  0.84316975     0.19900
C594        C  0.04268184  0.12979231  0.83734967     0.22500
C595        C  0.03952443  0.14903542  0.82624731    -0.39500
C596        C  0.06780194  0.17876524  0.82112188     0.21300
N597        N  0.12011632  0.21751110  0.81993033    -0.32800
C598        C  0.10604495  0.22687531  0.81015509    -0.10300
C599        C  0.07325750  0.20318824  0.81066374    -0.29100
N600        N  0.01964323  0.10033968  0.84364085    -0.45700
C601        C  0.03428896  0.09181807  0.85375697    -0.05000
C602        C  0.06677978  0.11585351  0.85382183    -0.22400
H603        H  0.12266229  0.17701955  0.84240246     0.19400
H604        H  0.01680018  0.14140355  0.82185719     0.18200
H605        H  0.05568887  0.20365606  0.80432741     0.14500
H606        H  0.08442057  0.11561336  0.86037325     0.14400
H607        H  0.14400832  0.23046192  0.82294104     0.32500
H608        H  0.99552708  0.08690460  0.84121059     0.35300
C609        C  0.25780082  0.36787749  0.79344744     0.20900
C610        C  0.28473151  0.39759513  0.80688178    -0.39000
C611        C  0.31073136  0.39719920  0.80591330     0.19900
C612        C  0.30988695  0.36925880  0.79254993     0.22500
C613        C  0.28340974  0.33991587  0.77821590    -0.39500
C614        C  0.25744226  0.34029581  0.77936338     0.21300
N615        N  0.22850075  0.36048007  0.79646853    -0.32800
C616        C  0.20921388  0.32785667  0.78463043    -0.10300
C617        C  0.22678561  0.31471677  0.77304776    -0.29100
N618        N  0.33488213  0.37342572  0.79984585    -0.45700
C619        C  0.35182738  0.40419707  0.81796500    -0.05000
C620        C  0.33795404  0.42008716  0.82160262    -0.22400
H621        H  0.28455756  0.41876538  0.81949073     0.19400
H622        H  0.28211590  0.31770216  0.76932339     0.18200
H623        H  0.21803259  0.28940856  0.76380541     0.14500
H624        H  0.34500178  0.44391102  0.83662497     0.14400
H625        H  0.22168213  0.37620199  0.80868399     0.32500
H626        H  0.33900358  0.35572835  0.79471679     0.35300
C627        C  0.05174321  0.36243529  0.84626820     0.20900
C628        C  0.05685483  0.34390363  0.85578674    -0.39000
C629        C  0.07727903  0.33633366  0.83419448     0.19900
C630        C  0.09196651  0.34677834  0.80546287     0.22500
C631        C  0.08638507  0.36490019  0.79562120    -0.39500
C632        C  0.06555773  0.37217650  0.81712386     0.21300
N633        N  0.03372040  0.37315625  0.86289362    -0.32800
C634        C  0.03563127  0.38953705  0.84410966    -0.10300
C635        C  0.05519807  0.38939453  0.81526183    -0.29100
N636        N  0.11118978  0.33717869  0.78987869    -0.45700
C637        C  0.10814349  0.32008401  0.80868807    -0.05000
C638        C  0.08714261  0.31897152  0.83640662    -0.22400
H639        H  0.04585499  0.33609046  0.87845958     0.19400
H640        H  0.09755173  0.37290104  0.77305827     0.18200
H641        H  0.06132741  0.40071798  0.79583941     0.14500
H642        H  0.08043083  0.30742377  0.85584326     0.14400
H643        H  0.02076785  0.36940158  0.88560063     0.32500
H644        H  0.12518922  0.34162417  0.76775119     0.35300
C645        C  0.38611253  0.11304344  0.70065466     0.20900
C646        C  0.40973247  0.10955034  0.68079508    -0.39000
C647        C  0.41409944  0.08951513  0.68837326     0.19900
C648        C  0.39660136  0.07434977  0.71405207     0.22500
C649        C  0.37268368  0.07765778  0.73383695    -0.39500
C650        C  0.36800231  0.09747009  0.72596337     0.21300
N651        N  0.37688415  0.13000035  0.69763950    -0.32800
C652        C  0.35245109  0.12510654  0.72095212    -0.10300
C653        C  0.34608422  0.10480022  0.73912755    -0.29100
N654        N  0.40454437  0.05545747  0.71511778    -0.45700
C655        C  0.42670893  0.05822568  0.68948764    -0.05000
C656        C  0.43344549  0.07945878  0.67246943    -0.22400
H657        H  0.42323065  0.12101192  0.66043721     0.19400
H658        H  0.35833364  0.06516485  0.75337771     0.18200
H659        H  0.32790317  0.09649471  0.75912796     0.14500
H660        H  0.44958694  0.08581532  0.65069997     0.14400
H661        H  0.38609223  0.14329195  0.68003573     0.32500
H662        H  0.39449329  0.04048557  0.73124905     0.35300
C663        C  0.38906013  0.26216969  0.70298134     0.20900
C664        C  0.41773202  0.29296833  0.70258682    -0.39000
C665        C  0.41813835  0.31253090  0.68798747     0.19900
C666        C  0.39197665  0.30214626  0.67486396     0.22500
C667        C  0.36327212  0.27157477  0.67561464    -0.39500
C668        C  0.36287496  0.25208651  0.69018495     0.21300
N669        N  0.38264866  0.23877370  0.71487269    -0.32800
C670        C  0.35205642  0.21370260  0.70981477    -0.10300
C671        C  0.33899048  0.22122454  0.69448626    -0.29100
N672        N  0.39829558  0.32511315  0.66240301    -0.45700
C673        C  0.42865843  0.35049714  0.66774775    -0.05000
C674        C  0.44187484  0.34356275  0.68366460    -0.22400
H675        H  0.43821086  0.30103610  0.71275743     0.19400
H676        H  0.34276572  0.26351618  0.66550388     0.18200
H677        H  0.31538374  0.20595822  0.68688075     0.14500
H678        H  0.46546378  0.35925794  0.69142747     0.14400
H679        H  0.39806841  0.23998301  0.72601564     0.32500
H680        H  0.38268039  0.32379847  0.65145437     0.35300
C681        C  0.14928020  0.07400849  0.73654195     0.20900
C682        C  0.17642168  0.10354002  0.74925194    -0.39000
C683        C  0.20244541  0.10296691  0.74688776     0.19900
C684        C  0.20161680  0.07508494  0.73304471     0.22500
C685        C  0.17416094  0.04527415  0.72083100    -0.39500
C686        C  0.14801863  0.04582503  0.72314474     0.21300
N687        N  0.12365071  0.06972283  0.73096294    -0.32800
C688        C  0.10594819  0.03868001  0.71381552    -0.10300
C689        C  0.11994608  0.02269651  0.70904703    -0.29100
N690        N  0.23085528  0.08217280  0.72915091    -0.45700
C691        C  0.25042697  0.11486203  0.74009829    -0.05000
C692        C  0.23329792  0.12842650  0.75199821    -0.22400
H693        H  0.17795548  0.12588664  0.75802666     0.19400
H694        H  0.17389107  0.02383482  0.70832832     0.18200
H695        H  0.11236673  0.99867804  0.69419460     0.14500
H696        H  0.24246040  0.15387885  0.76066713     0.14400
H697        H  0.11961727  0.08752300  0.73633228     0.32500
H698        H  0.23740905  0.06621982  0.71700186     0.35300
C699        C  0.37790110  0.05307292  0.96279915     0.18300
C700        C  0.40539092  0.10884451  0.48424928    -0.39000
C701        C  0.34903527  0.07614990  0.97691492     0.19900
C702        C  0.36079878  0.08543082  0.94752456     0.22500
C703        C  0.38106220  0.07851566  0.92450789    -0.39500
C704        C  0.38891065  0.06182814  0.93319198     0.21300
N705        N  0.38810072  0.03635823  0.96446877    -0.32800
C706        C  0.40521228  0.03416187  0.93547446    -0.10300
C707        C  0.40636006  0.04987798  0.91545951    -0.29100
N708        N  0.34922021  0.10022728  0.94442904    -0.45700
C709        C  0.32953169  0.10003186  0.97175787    -0.05000
C710        C  0.38059707  0.13887876  0.49459257    -0.22400
H711        H  0.39152141  0.09586655  0.50349877     0.19400
H712        H  0.38952739  0.08501430  0.90119374     0.18200
H713        H  0.41781592  0.05165034  0.89091355     0.14500
H714        H  0.36256970  0.12994384  0.51452747     0.14400
H715        H  0.42743715  0.07098675  0.47805038     0.32500
H716        H  0.35385860  0.10929018  0.92458849     0.35300
C717        C  0.33638794  0.23092011  0.95711775     0.20900
C718        C  0.33299290  0.25036777  0.94682962    -0.39000
C719        C  0.36087014  0.28066956  0.94311543     0.19900
C720        C  0.38995476  0.29096350  0.94930740     0.22500
C721        C  0.39336147  0.27142196  0.95954708    -0.39500
C722        C  0.36540219  0.24096438  0.96313795     0.21300
N723        N  0.31358007  0.20077258  0.96150183    -0.32800
C724        C  0.32798634  0.19120865  0.97036314    -0.10300
C725        C  0.36045182  0.21581567  0.97164092    -0.29100
N726        N  0.41292717  0.32042546  0.94299564    -0.45700
C727        C  0.39831025  0.32869307  0.93240521    -0.05000
C728        C  0.36582913  0.30456744  0.93233519    -0.22400
H729        H  0.31035839  0.24228820  0.94163194     0.19400
H730        H  0.41613159  0.27914294  0.96390676     0.18200
H731        H  0.37817393  0.21543483  0.97775849     0.14500
H732        H  0.34829940  0.30430162  0.92481595     0.14400
H733        H  0.28985252  0.18734269  0.95755221     0.32500
H734        H  0.43710885  0.33369776  0.94500253     0.35300
C735        C  0.17916110  0.04602454  0.97738173     0.20900
C736        C  0.15356475  0.01677906  0.96133317    -0.39000
C737        C  0.12682324  0.01619444  0.96299678     0.19900
C738        C  0.12582137  0.04279095  0.97943890     0.22500
C739        C  0.15100125  0.07159894  0.99605066    -0.39500
C740        C  0.17767966  0.07223376  0.99420153     0.21300
N741        N  0.20881379  0.05459631  0.97513174    -0.32800
C742        C  0.22641466  0.08662267  0.99012282    -0.10300
C743        C  0.20749696  0.09815228  0.00287837    -0.29100
N744        N  0.10028060  0.03830252  0.97325482    -0.45700
C745        C  0.08480313  0.00869379  0.95276791    -0.05000
C746        C  0.10017475  0.99373752  0.94629731    -0.22400
H747        H  0.15520236  0.99683557  0.94672332     0.19400
H748        H  0.15076824  0.09285819  0.00748105     0.18200
H749        H  0.21499390  0.12287238  0.01449448     0.14500
H750        H  0.09426503  0.97096653  0.92932291     0.14400
H751        H  0.21709958  0.04035259  0.96154953     0.32500
H752        H  0.09464596  0.05511365  0.98101352     0.35300
C753        C  0.31160030  0.61453680  0.97776514     0.03700
C754        C  0.27852567  0.59654453  0.98554338    -0.12500
C755        C  0.26207147  0.61005231  0.98916706     0.01200
C756        C  0.27949412  0.64227143  0.98630488    -0.11000
C757        C  0.31242693  0.66039103  0.97835919     0.03700
C758        C  0.32832925  0.64629859  0.97408514    -0.10400
H759        H  0.26564787  0.57175546  0.98752096     0.09300
H760        H  0.26730698  0.65305980  0.98901794     0.06800
H761        H  0.35365087  0.65969923  0.96715263     0.06600
C762        C  0.35824216  0.66241388  0.22328650     0.03700
C763        C  0.37564287  0.69646980  0.23211528    -0.12500
C764        C  0.36207527  0.71206616  0.23292126     0.01200
C765        C  0.33079165  0.69323699  0.22523972    -0.11000
C766        C  0.31308532  0.65930280  0.21655311     0.03700
C767        C  0.32676302  0.64400226  0.21609105    -0.10400
H768        H  0.39999858  0.71078342  0.23727184     0.09300
H769        H  0.32034366  0.70498903  0.22507530     0.06800
H770        H  0.31321855  0.61776417  0.20906726     0.06600
C771        C  0.18760078  0.86746458  0.30554150     0.03700
C772        C  0.22025665  0.88386068  0.29569683    -0.12500
C773        C  0.23594416  0.86951649  0.29188943     0.01200
C774        C  0.21806778  0.83791713  0.29688302    -0.11000
C775        C  0.18530513  0.82095366  0.30603563     0.03700
C776        C  0.17025033  0.83593382  0.31032139    -0.10400
H777        H  0.23351726  0.90823972  0.29233941     0.09300
H778        H  0.22966875  0.82659204  0.29450709     0.06800
H779        H  0.14514343  0.82343739  0.31829808     0.06600
C780        C  0.14639833  0.82479779  0.05059456     0.03700
C781        C  0.17834780  0.84208951  0.05535848    -0.12500
C782        C  0.19124798  0.82572431  0.05383991     0.01200
C783        C  0.17206408  0.79173551  0.04684146    -0.11000
C784        C  0.14007953  0.77387144  0.04166128     0.03700
C785        C  0.12746901  0.79065497  0.04322127    -0.10400
H786        H  0.19277992  0.86839718  0.06171175     0.09300
H787        H  0.18195964  0.77930286  0.04655051     0.06800
H788        H  0.10268574  0.77732200  0.04016426     0.06600
O789        O  0.07854694  0.97608244  0.33349271    -0.74800
O790        O  0.07067731  0.97181966  0.38570206    -0.53700
C791        C  0.08149781  0.96776933  0.35554244     0.79000
O792        O  0.09152222  0.61910961  0.38098345    -0.59400
O793        O  0.04845881  0.59764190  0.35622028    -0.52400
C794        C  0.07649807  0.62091008  0.36484531     0.71000
O795        O  0.11581155  0.57915424  0.43247294    -0.73900
O796        O  0.09406232  0.03065799  0.44070285    -0.54500
C797        C  0.11487386  0.55874437  0.44229106     0.77000
O798        O  0.04054065  0.00741840  0.28640404    -0.59100
O799        O  0.51948350  0.03674595  0.30626073    -0.52200
C800        C  0.52889357  0.02103256  0.28266627     0.73600
Zr801      Zr  0.05260833  0.99969146  0.33079095     2.54700
O802        O  0.10405198  0.02936170  0.30022469    -0.79600
O803        O  0.53860904  0.95314760  0.28800906    -0.93000
Zr804      Zr  0.08389789  0.57854147  0.40254211     2.64700
O805        O  0.13527079  0.59924694  0.37043005    -0.98000
O806        O  0.10416746  0.62846270  0.44500184    -0.80100
O807        O  0.07770199  0.02839188  0.37994032    -0.83400
O808        O  0.06117613  0.55135963  0.35222766    -2.18100
O809        O  0.43995270  0.95935131  0.34531494    -0.66800
O810        O  0.46174704  0.01087925  0.34266814    -0.51400
C811        C  0.44047537  0.98002919  0.33651089     0.72000
O812        O  0.50283235  0.52215064  0.49746785    -0.59700
O813        O  0.03008718  0.99708644  0.47693468    -0.51700
C814        C  0.51155744  0.00728965  0.50109776     0.73800
O815        O  0.47778590  0.56587203  0.45099020    -0.71100
O816        O  0.48567174  0.56977029  0.39864800    -0.49800
C817        C  0.47574871  0.57489790  0.42894978     0.75200
O818        O  0.46083644  0.91981094  0.40212172    -0.66400
O819        O  0.50456127  0.94054730  0.42527622    -0.53600
C820        C  0.47628633  0.91773227  0.41732185     0.73500
Zr821      Zr  0.46823499  0.95940212  0.37944688     2.77500
O822        O  0.41593089  0.93755890  0.40971695    -0.97200
O823        O  0.44750746  0.90877409  0.33786443    -0.78000
Zr824      Zr  0.49995475  0.53869098  0.45401339     2.70100
O825        O  0.44418134  0.00937717  0.48003806    -0.79300
O826        O  0.02086518  0.58694784  0.49519366    -0.98300
Zr827      Zr  0.04303691  0.99618713  0.41893661     2.21500
Zr828      Zr  0.51018951  0.54220510  0.36591573     2.11100
O829        O  0.47528376  0.01009371  0.40247750    -2.47000
O830        O  0.48975318  0.98574632  0.43021835    -0.79000
O831        O  0.50376157  0.99224584  0.34168375    -0.71200
O832        O  0.04921927  0.54685038  0.44186261    -2.32200
O833        O  0.51840941  0.96819383  0.36882985    -2.28400
O834        O  0.03391513  0.57046040  0.41486277    -0.73000
H835        H  0.07427779  0.56434543  0.33623755     0.79000
H836        H  0.05879793  0.55695108  0.46202461     0.80100
H837        H  0.45519110  0.00696028  0.40522475     0.82300
H838        H  0.51560990  0.94752162  0.36077291     0.79900
H839        H  0.08617909  0.62353450  0.46217462     0.43000
H840        H  0.00247562  0.58407160  0.51108047     0.41900
H841        H  0.44598274  0.02344492  0.50222038     0.41600
H842        H  0.40816017  0.94870390  0.40616713     0.39500
H843        H  0.45992545  0.91542105  0.31726471     0.42700
H844        H  0.55338389  0.96105586  0.26872234     0.37500
H845        H  0.10645043  0.01229787  0.28470311     0.43600
H846        H  0.13710852  0.58076343  0.36266627     0.40000
H847        H  0.40256316  0.91486177  0.39729408     0.44900
H848        H  0.01189902  0.93336123  0.29801981     0.43600
H849        H  0.13260012  0.60160966  0.35058356     0.43800
H850        H  0.48564411  0.53822709  0.99299948     0.44100
O851        O  0.03541884  0.93211280  0.08298524    -0.74800
O852        O  0.04923582  0.94963475  0.13455458    -0.53700
C853        C  0.04802378  0.93349386  0.10477043     0.79000
O854        O  0.05458538  0.57449014  0.09563161    -0.59400
O855        O  0.00290880  0.55214718  0.09233618    -0.52400
C856        C  0.03290286  0.57335264  0.08741282     0.71000
O857        O  0.10193645  0.55632680  0.14533614    -0.73900
O858        O  0.08662255  0.01817292  0.17015536    -0.54500
C859        C  0.10580900  0.54267181  0.16045771     0.77000
O860        O  0.98945762  0.95486593  0.03557344    -0.59100
O861        O  0.46588035  0.48371825  0.05683702    -0.52200
C862        C  0.47265577  0.96490431  0.03314409     0.73600
Zr863      Zr  0.01007144  0.95611924  0.07961623     2.54700
O864        O  0.05302977  0.97054146  0.03574147    -0.79600
O865        O  0.47288883  0.89709173  0.05044185    -0.93000
Zr866      Zr  0.05874315  0.54734837  0.12556899     2.64700
O867        O  0.10100087  0.55826440  0.08104170    -0.98000
O868        O  0.08762114  0.60438476  0.15402695    -0.80100
O869        O  0.05005700  0.99688408  0.11565143    -0.83400
O870        O  0.01959482  0.50663223  0.08889539    -2.18100
O871        O  0.39841475  0.92842729  0.13568954    -0.66800
O872        O  0.41675482  0.96811117  0.11054066    -0.51400
C873        C  0.39457961  0.94170735  0.12001177     0.72000
O874        O  0.50978118  0.52845754  0.24625803    -0.59700
O875        O  0.03392552  0.00122414  0.22552722    -0.51700
C876        C  0.52442713  0.01677718  0.24900518     0.73800
O877        O  0.47030809  0.55773135  0.19856181    -0.71100
O878        O  0.45303596  0.53654566  0.14813168    -0.49800
C879        C  0.45566057  0.55418639  0.17733165     0.75200
O880        O  0.44529556  0.91444365  0.19090277    -0.66400
O881        O  0.49683082  0.93495196  0.19199286    -0.53600
C882        C  0.46688455  0.91537514  0.19898663     0.73500
Zr883      Zr  0.44134799  0.93882951  0.15732116     2.77500
O884        O  0.40069767  0.93340465  0.20261048    -0.97200
O885        O  0.41038972  0.88047154  0.13451904    -0.78000
Zr886      Zr  0.49534198  0.53328643  0.20162295     2.70100
O887        O  0.45775224  0.02894026  0.24925769    -0.79300
O888        O  0.02884840  0.58939413  0.22693728    -0.98300
Zr889      Zr  0.02985372  0.98244384  0.16699356     2.21500
Zr890      Zr  0.47277102  0.50436647  0.11511155     2.11100
O891        O  0.45405360  0.99120545  0.16619861    -2.47000
O892        O  0.48113364  0.97934032  0.19300006    -0.79000
O893        O  0.45957778  0.95084575  0.10509638    -0.71200
O894        O  0.04008773  0.53486871  0.17747445    -2.32200
O895        O  0.48678585  0.93921843  0.13184735    -2.28400
O896        O  0.01256140  0.54588455  0.14960146    -0.73000
H897        H  0.02658750  0.51256315  0.06823335     0.79000
H898        H  0.05630019  0.55032370  0.19229813     0.80100
H899        H  0.43503288  0.99040389  0.17497526     0.82300
H900        H  0.48216451  0.91825656  0.12963660     0.79900
H901        H  0.11026132  0.61300671  0.14738621     0.43000
H902        H  0.04432943  0.59050079  0.23599243     0.41900
H903        H  0.44333998  0.00556757  0.24937486     0.41600
H904        H  0.38212816  0.91065626  0.19673981     0.39500
H905        H  0.40808514  0.87804791  0.11200371     0.42700
H906        H  0.47431556  0.88425606  0.06039953     0.37500
H907        H  0.07255327  0.98387436  0.04678694     0.43600
H908        H  0.11843950  0.58132550  0.08841298     0.40000
H909        H  0.40810094  0.93420898  0.22119940     0.44900
H910        H  0.95615273  0.89179629  0.05916371     0.43600
H911        H  0.10884236  0.54591486  0.08130840     0.43800
H912        H  0.52460060  0.59299462  0.24927655     0.44100
C913        C  0.07761418  0.63878266  0.04824332     0.20900
C914        C  0.10564628  0.66330839  0.03458680    -0.39000
C915        C  0.10594909  0.68944791  0.03472590     0.19900
C916        C  0.08032742  0.69123297  0.04759063     0.22500
C917        C  0.05188244  0.66624845  0.06078590    -0.39500
C918        C  0.05149303  0.63984815  0.06051933     0.21300
N919        N  0.07324798  0.61384699  0.05480545    -0.32800
C920        C  0.04411561  0.59864923  0.07126119    -0.10300
C921        C  0.02944947  0.61376650  0.07491339    -0.29100
N922        N  0.08847974  0.72084227  0.04924593    -0.45700
C923        C  0.11962410  0.73809404  0.03776031    -0.05000
C924        C  0.13095320  0.71884426  0.02776123    -0.22400
H925        H  0.13677576  0.70952067  0.62531235     0.19400
H926        H  0.03226838  0.66814398  0.07218872     0.18200
H927        H  0.00707437  0.60822406  0.08873151     0.14500
H928        H  0.16668498  0.76572299  0.60035670     0.14400
H929        H  0.08984881  0.60856958  0.04999690     0.32500
H930        H  0.07449170  0.72955615  0.06028099     0.35300
C931        C  0.26271499  0.85732469  0.08378674     0.20900
C932        C  0.28151253  0.85813918  0.10075533    -0.39000
C933        C  0.31243850  0.88635413  0.10343611     0.19900
C934        C  0.32389495  0.91178251  0.09009339     0.22500
C935        C  0.30501256  0.91101591  0.07320643    -0.39500
C936        C  0.27392952  0.88282644  0.07071962     0.21300
N937        N  0.23231858  0.83352792  0.07856383    -0.32800
C938        C  0.22384478  0.84398204  0.06233443    -0.10300
C939        C  0.24926129  0.87466587  0.05692597    -0.29100
N940        N  0.35445212  0.93536243  0.09514036    -0.45700
C941        C  0.36241519  0.92471962  0.11171737    -0.05000
C942        C  0.33675129  0.89438343  0.11756507    -0.22400
H943        H  0.27270851  0.83825015  0.11108890     0.19400
H944        H  0.31384026  0.93088748  0.06283650     0.18200
H945        H  0.24954845  0.88920279  0.04490887     0.14500
H946        H  0.33626971  0.87970599  0.12957641     0.14400
H947        H  0.24201050  0.81870080  0.52864119     0.32500
H948        H  0.36915109  0.95693488  0.08711655     0.35300
C949        C  0.10203698  0.85558116  0.05580480     0.20900
C950        C  0.07975036  0.85714509  0.04775600    -0.39000
C951        C  0.07582209  0.88143433  0.06864637     0.19900
C952        C  0.09246945  0.90208891  0.09567015     0.22500
C953        C  0.11493327  0.90078966  0.10342515    -0.39500
C954        C  0.11920028  0.87698326  0.08234697     0.21300
N955        N  0.10969194  0.83430710  0.04054777    -0.32800
C956        C  0.13218955  0.84267135  0.05735482    -0.10300
C957        C  0.13877804  0.86925687  0.08344410    -0.29100
N958        N  0.08424977  0.92265400  0.11198616    -0.45700
C959        C  0.06254760  0.91559366  0.09508155    -0.05000
C960        C  0.05663282  0.88997055  0.06781197    -0.22400
H961        H  0.06643315  0.84066891  0.02688196     0.19400
H962        H  0.12810489  0.91711240  0.12442436     0.18200
H963        H  0.15492960  0.88066032  0.10152298     0.14500
H964        H  0.04044193  0.87903749  0.04993219     0.14400
H965        H  0.10016393  0.81526844  0.02013234     0.32500
H966        H  0.09328890  0.94080921  0.13309570     0.35300
C967        C  0.15710097  0.75000155  0.33058173     0.20900
C968        C  0.15893763  0.73159624  0.34451886    -0.39000
C969        C  0.13096857  0.70093114  0.34688594     0.19900
C970        C  0.10321540  0.68920812  0.33595745     0.22500
C971        C  0.10129275  0.70780683  0.32217702    -0.39500
C972        C  0.12933534  0.73877152  0.32009849     0.21300
N973        N  0.18037387  0.78010587  0.32628791    -0.32800
C974        C  0.16749945  0.78859135  0.31327071    -0.10300
C975        C  0.13557857  0.76334891  0.30905686    -0.29100
N976        N  0.08006067  0.65912860  0.34087105    -0.45700
C977        C  0.09321343  0.65187817  0.35526607    -0.05000
C978        C  0.12492626  0.67743667  0.35938011    -0.22400
H979        H  0.18057552  0.74060541  0.35309373     0.19400
H980        H  0.07956298  0.69895174  0.31393762     0.18200
H981        H  0.11915959  0.76305973  0.29936428     0.14500
H982        H  0.14144405  0.67858465  0.36992262     0.14400
H983        H  0.20339125  0.79436578  0.33286985     0.32500
H984        H  0.05678238  0.64451022  0.33490553     0.35300
C985        C  0.32008661  0.92854357  0.29252765     0.20900
C986        C  0.34728058  0.95880977  0.30466965    -0.39000
C987        C  0.37306034  0.95865261  0.30519342     0.19900
C988        C  0.37176444  0.93043566  0.29420947     0.22500
C989        C  0.34493634  0.90044146  0.28147742    -0.39500
C990        C  0.31917407  0.90058176  0.28126719     0.21300
N991        N  0.29093707  0.92124199  0.29491695    -0.32800
C992        C  0.27114129  0.88831809  0.28580514    -0.10300
C993        C  0.28830274  0.87482107  0.27628147    -0.29100
N994        N  0.39684889  0.93533885  0.30210394    -0.45700
C995        C  0.41425488  0.96679292  0.31843281    -0.05000
C996        C  0.40057733  0.98241537  0.32029621    -0.22400
H997        H  0.34745825  0.98035710  0.31531573     0.19400
H998        H  0.34330901  0.87814450  0.27478479     0.18200
H999        H  0.27925880  0.84941652  0.26947501     0.14500
H1000       H  0.40796446  0.00675409  0.33380627     0.14400
H1001       H  0.28464234  0.93753275  0.30533010     0.32500
H1002       H  0.40070357  0.91772534  0.29865113     0.35300
C1003       C  0.11472603  0.92559323  0.34894377     0.20900
C1004       C  0.11939959  0.90685679  0.35873075    -0.39000
C1005       C  0.14112086  0.90057125  0.33838081     0.19900
C1006       C  0.15744570  0.91244197  0.31058035     0.22500
C1007       C  0.15263766  0.93115071  0.30063955    -0.39500
C1008       C  0.13043167  0.93707958  0.32085383     0.21300
N1009       N  0.09533134  0.93484002  0.36433203    -0.32800
C1010       C  0.09835125  0.95224475  0.34599431    -0.10300
C1011       C  0.11993580  0.95405294  0.31845592    -0.29100
N1012       N  0.17663786  0.90272007  0.29543445    -0.45700
C1013       C  0.17191856  0.88407103  0.31350061    -0.05000
C1014       C  0.15005900  0.88235379  0.34052832    -0.22400
H1015       H  0.10680938  0.89760494  0.38051229     0.19400
H1016       H  0.16506304  0.94019784  0.27873169     0.18200
H1017       H  0.12739477  0.96661009  0.29968047     0.14500
H1018       H  0.14179370  0.86944203  0.35923161     0.14400
H1019       H  0.08086807  0.92961082  0.38609973     0.32500
H1020       H  0.19137883  0.90773226  0.27377166     0.35300
C1021       C  0.38468175  0.61091898  0.19820673     0.20900
C1022       C  0.38553860  0.58448408  0.17904486    -0.39000
C1023       C  0.40787937  0.58254894  0.18584623     0.19900
C1024       C  0.42789979  0.60505266  0.21006460     0.22500
C1025       C  0.42723035  0.63187582  0.22920798    -0.39500
C1026       C  0.40481121  0.63392744  0.22221422     0.21300
N1027       N  0.36562193  0.61803620  0.19602114    -0.32800
C1028       C  0.37346477  0.64591941  0.21871892    -0.10300
C1029       C  0.39803678  0.65676168  0.23550904    -0.29100
N1030       N  0.44733980  0.59765970  0.21100069    -0.45700
C1031       C  0.43971732  0.57058555  0.18680534    -0.05000
C1032       C  0.41516387  0.56049066  0.17081731    -0.22400
H1033       H  0.37007555  0.56681231  0.15996325     0.19400
H1034       H  0.44309675  0.64988785  0.24787453     0.18200
H1035       H  0.40931639  0.67829486  0.25482210     0.14500
H1036       H  0.40432653  0.53989210  0.15055664     0.14400
H1037       H  0.34884144  0.60500393  0.17936854     0.32500
H1038       H  0.46516261  0.61063679  0.22641232     0.35300
C1039       C  0.41986674  0.79639938  0.23380476     0.20900
C1040       C  0.44877647  0.82311463  0.22378675    -0.39000
C1041       C  0.44867731  0.84960483  0.22581400     0.19900
C1042       C  0.42171705  0.84931699  0.23684185     0.22500
C1043       C  0.39299785  0.82282176  0.24715913    -0.39500
C1044       C  0.39316277  0.79646878  0.24518486     0.21300
N1045       N  0.41265045  0.76683078  0.23019201    -0.32800
C1046       C  0.38103502  0.74785582  0.23896142    -0.10300
C1047       C  0.36828198  0.76580780  0.24901454    -0.29100
N1048       N  0.42605855  0.87470341  0.23133905    -0.45700
C1049       C  0.45581877  0.89109490  0.21639192    -0.05000
C1050       C  0.47102521  0.87671393  0.21323966    -0.22400
H1051       H  0.46921248  0.82247868  0.21318622     0.19400
H1052       H  0.37153321  0.82189847  0.25404856     0.18200
H1053       H  0.34371105  0.75719120  0.25600952     0.14500
H1054       H  0.49377388  0.88294675  0.19997720     0.14400
H1055       H  0.42781687  0.75949369  0.21979588     0.32500
H1056       H  0.40888123  0.87896886  0.23488796     0.35300
C1057       C  0.18799652  0.59550143  0.17190561     0.20900
C1058       C  0.21866728  0.62416623  0.17204436    -0.39000
C1059       C  0.24030493  0.62628264  0.18589057     0.19900
C1060       C  0.23219294  0.60166761  0.19839534     0.22500
C1061       C  0.20139443  0.57298479  0.19838893    -0.39500
C1062       C  0.17960599  0.57093549  0.18472793     0.21300
N1063       N  0.16295604  0.58812149  0.16105136    -0.32800
C1064       C  0.13828728  0.55875287  0.16722506    -0.10300
C1065       C  0.14773304  0.54714621  0.18189563    -0.29100
N1066       N  0.25709158  0.60995091  0.21056804    -0.45700
C1067       C  0.28108832  0.64023345  0.20609535    -0.05000
C1068       C  0.27144780  0.65109384  0.19064048    -0.22400
H1069       H  0.22508650  0.64359441  0.16250360     0.19400
H1070       H  0.19479016  0.55389617  0.20863162     0.18200
H1071       H  0.13315130  0.52469083  0.18994175     0.14500
H1072       H  0.28533256  0.67404854  0.18371392     0.14400
H1073       H  0.16254186  0.60255815  0.15075068     0.32500
H1074       H  0.25744637  0.59617689  0.22192773     0.35300
C1075       C  0.43166306  0.60936380  0.46504922     0.18300
C1076       C  0.35493197  0.55734131  0.98351437    -0.39000
C1077       C  0.40379070  0.63364370  0.47943601     0.19900
C1078       C  0.41980099  0.64756281  0.45281614     0.22500
C1079       C  0.44187414  0.64255482  0.43105087    -0.39500
C1080       C  0.44698365  0.62280273  0.43809053     0.21300
N1081       N  0.44045390  0.59107363  0.46582307    -0.32800
C1082       C  0.46110477  0.59260729  0.43887780    -0.10300
C1083       C  0.46575381  0.61218657  0.42105423    -0.29100
N1084       N  0.41015789  0.66451184  0.45067009    -0.45700
C1085       C  0.38744205  0.66112390  0.47578105    -0.05000
C1086       C  0.32653454  0.58303005  0.99076646    -0.22400
H1087       H  0.34477977  0.54883959  0.00581397     0.19400
H1088       H  0.45379398  0.65283444  0.40982315     0.18200
H1089       H  0.48063438  0.61762705  0.39845260     0.14500
H1090       H  0.31218063  0.57838342  0.01375152     0.14400
H1091       H  0.38064043  0.52404142  0.98147127     0.32500
H1092       H  0.41785625  0.67676573  0.43251166     0.35300
C1093       C  0.39665594  0.78971437  0.45249580     0.20900
C1094       C  0.39420940  0.80817888  0.43936206    -0.39000
C1095       C  0.42220651  0.83855009  0.43616382     0.19900
C1096       C  0.45050007  0.84990278  0.44557000     0.22500
C1097       C  0.45297788  0.83136252  0.45865975    -0.39500
C1098       C  0.42494106  0.80076426  0.46159735     0.21300
N1099       N  0.37353755  0.75979936  0.45738629    -0.32800
C1100       C  0.38709315  0.75143772  0.46957098    -0.10300
C1101       C  0.41923448  0.77648887  0.47250581    -0.29100
N1102       N  0.47362388  0.87961862  0.43997374    -0.45700
C1103       C  0.45985673  0.88697703  0.42670435    -0.05000
C1104       C  0.42784250  0.86196694  0.42397740    -0.22400
H1105       H  0.37216347  0.79943535  0.43194882     0.19400
H1106       H  0.47510587  0.83998738  0.46576281     0.18200
H1107       H  0.43620407  0.77695096  0.48138565     0.14500
H1108       H  0.41091385  0.86115517  0.41456092     0.14400
H1109       H  0.35019823  0.74569694  0.45180217     0.32500
H1110       H  0.49723220  0.89393310  0.44482009     0.35300
C1111       C  0.23713963  0.60951479  0.48331652     0.20900
C1112       C  0.21106520  0.57995518  0.46817442    -0.39000
C1113       C  0.18483599  0.57984567  0.46862740     0.19900
C1114       C  0.18488984  0.60727040  0.48281776     0.22500
C1115       C  0.21059552  0.63649313  0.49841466    -0.39500
C1116       C  0.23661320  0.63652819  0.49810645     0.21300
N1117       N  0.26645188  0.61743110  0.48181091    -0.32800
C1118       C  0.28484678  0.64983739  0.49516868    -0.10300
C1119       C  0.26665998  0.66225137  0.50639673    -0.29100
N1120       N  0.15927663  0.60251072  0.47636740    -0.45700
C1121       C  0.14243665  0.57174342  0.45821228    -0.05000
C1122       C  0.15738155  0.55658182  0.45318096    -0.22400
H1123       H  0.21187625  0.55919952  0.45530543     0.19400
H1124       H  0.21112568  0.65827431  0.50821775     0.18200
H1125       H  0.27486243  0.68735828  0.51642974     0.14500
H1126       H  0.15044996  0.53281752  0.43807770     0.14400
H1127       H  0.27408250  0.60241564  0.46944833     0.32500
H1128       H  0.15426392  0.61968443  0.48266979     0.35300
C1129       C  0.36990014  0.67536889  0.48114787     0.03700
C1130       C  0.33688767  0.65747286  0.48931591    -0.12500
C1131       C  0.32009639  0.67009394  0.49101835     0.01200
C1132       C  0.33697611  0.70131984  0.48549060    -0.11000
C1133       C  0.36991906  0.71945743  0.47738737     0.03700
C1134       C  0.38613807  0.70622531  0.47525887    -0.10400
H1135       H  0.32419965  0.63331293  0.49304777     0.09300
H1136       H  0.32431988  0.71117917  0.48648217     0.06800
H1137       H  0.41144047  0.71963480  0.46828359     0.06600
C1138       C  0.33559301  0.63999325  0.72487034     0.03700
C1139       C  0.35162132  0.67079323  0.71875663    -0.12500
C1140       C  0.33505043  0.68331175  0.71971221     0.01200
C1141       C  0.30224471  0.66527034  0.72800192    -0.11000
C1142       C  0.28567171  0.63470905  0.73471429     0.03700
C1143       C  0.30245123  0.62205501  0.73288895    -0.10400
H1144       H  0.37696951  0.68480825  0.71249019     0.09300
H1145       H  0.28944495  0.67483660  0.72852607     0.06800
H1146       H  0.28959474  0.59812953  0.73723739     0.06600
C1147       C  0.12274570  0.80161375  0.80005500     0.03700
C1148       C  0.15589971  0.81971151  0.79293517    -0.12500
C1149       C  0.17218546  0.80577045  0.78827877     0.01200
C1150       C  0.15448365  0.77306119  0.78965606    -0.11000
C1151       C  0.12147578  0.75480321  0.79694498     0.03700
C1152       C  0.10570186  0.76917348  0.80184619    -0.10400
H1153       H  0.16893023  0.84491088  0.79232594     0.09300
H1154       H  0.16643181  0.76191989  0.78650363     0.06800
H1155       H  0.08031029  0.75560839  0.80832928     0.06600
C1156       C  0.15006164  0.83230479  0.55936399     0.03700
C1157       C  0.18312467  0.85015630  0.55209259    -0.12500
C1158       C  0.19952132  0.83739083  0.55131894     0.01200
C1159       C  0.18235730  0.80652879  0.55770991    -0.11000
C1160       C  0.14935883  0.78842521  0.56460317     0.03700
C1161       C  0.13336868  0.80128440  0.56501481    -0.10400
H1162       H  0.19607514  0.87426290  0.54811866     0.09300
H1163       H  0.19463760  0.79675842  0.55824171     0.06800
H1164       H  0.10792579  0.78764854  0.57105351     0.06600
O1165       O  0.01465882  0.91196848  0.83162117    -0.74800
O1166       O  0.00607110  0.90691321  0.88360825    -0.53700
C1167       C  0.01666570  0.90260864  0.85346545     0.79000
O1168       O  0.03242724  0.55762695  0.87622975    -0.59400
O1169       O  0.98754148  0.53659238  0.85511195    -0.52400
C1170       C  0.01617965  0.55945441  0.86191150     0.71000
O1171       O  0.05816398  0.51827677  0.92769999    -0.73900
O1172       O  0.03484978  0.96643723  0.93340023    -0.54500
C1173       C  0.05758877  0.49812240  0.93760583     0.77000
O1174       O  0.98480356  0.95201544  0.78428191    -0.59100
O1175       O  0.46121215  0.97667757  0.80368422    -0.52200
C1176       C  0.47416853  0.96462035  0.77998357     0.73600
Zr1177     Zr  0.99089100  0.93760421  0.82766524     2.54700
O1178       O  0.04226868  0.96218689  0.79560199    -0.79600
O1179       O  0.46161435  0.88238297  0.79120468    -0.93000
Zr1180     Zr  0.02658825  0.51800336  0.89738773     2.64700
O1181       O  0.07682694  0.53713955  0.86318353    -0.98000
O1182       O  0.05157923  0.56956212  0.93734554    -0.80100
O1183       O  0.01777156  0.96609271  0.87547686    -0.83400
O1184       O  0.00143277  0.48937079  0.84867136    -2.18100
O1185       O  0.37592828  0.89851624  0.85145419    -0.66800
O1186       O  0.39974984  0.94857634  0.84286287    -0.51400
C1187       C  0.37685698  0.91832158  0.84053377     0.72000
O1188       O  0.45494008  0.47341023  0.99602391    -0.59700
O1189       O  0.97880390  0.94540207  0.97501313    -0.51700
C1190       C  0.46739314  0.96007185  0.99972034     0.73800
O1191       O  0.42092242  0.50693501  0.94700452    -0.71100
O1192       O  0.42861502  0.51025673  0.89445066    -0.49800
C1193       C  0.41915545  0.51598681  0.92477914     0.75200
O1194       O  0.40023951  0.86171691  0.90763099    -0.66400
O1195       O  0.44569986  0.88196968  0.92703577    -0.53600
C1196       C  0.41653128  0.85973460  0.92171151     0.73500
Zr1197     Zr  0.40741412  0.89985586  0.88278122     2.77500
O1198       O  0.35761413  0.88311586  0.91734712    -0.97200
O1199       O  0.38434973  0.84752835  0.84387516    -0.78000
Zr1200     Zr  0.44270730  0.47961168  0.95053380     2.70100
O1201       O  0.39346679  0.95622706  0.98401831    -0.79300
O1202       O  0.96058159  0.52866899  0.99511809    -0.98300
Zr1203     Zr  0.98276545  0.93573857  0.91600644     2.21500
Zr1204     Zr  0.45091841  0.48067479  0.86180609     2.11100
O1205       O  0.41747180  0.95194455  0.90344937    -2.47000
O1206       O  0.43312712  0.92854059  0.93126608    -0.79000
O1207       O  0.44024966  0.92859685  0.84104109    -0.71200
O1208       O  0.99284240  0.48846591  0.93795567    -2.32200
O1209       O  0.45638778  0.90570918  0.86845528    -2.28400
O1210       O  0.97713936  0.51143122  0.91118182    -0.73000
H1211       H  0.01428396  0.50198279  0.83234068     0.79000
H1212       H  0.00371839  0.49980005  0.95736384     0.80100
H1213       H  0.39770170  0.94971994  0.90766442     0.82300
H1214       H  0.45257072  0.88454904  0.86132682     0.79900
H1215       H  0.04063242  0.56385908  0.95863179     0.43000
H1216       H  0.97096710  0.54667708  0.98433134     0.41900
H1217       H  0.39671051  0.97286729  0.00459433     0.41600
H1218       H  0.34866722  0.86109840  0.91908201     0.39500
H1219       H  0.39176275  0.85298088  0.82232355     0.42700
H1220       H  0.47741229  0.88341785  0.77235953     0.37500
H1221       H  0.05081830  0.98541254  0.80031482     0.43600
H1222       H  0.07439144  0.51713595  0.84842773     0.40000
H1223       H  0.36403565  0.89699702  0.93930344     0.44900
H1224       H  0.96866769  0.87260370  0.79182984     0.43600
H1225       H  0.07705018  0.54785708  0.84885942     0.43800
H1226       H  0.54208939  0.59454388  0.49940519     0.44100
O1227       O  0.04942001  0.94786618  0.58454091    -0.74800
O1228       O  0.03535422  0.93758791  0.63509705    -0.53700
C1229       C  0.04861194  0.93593126  0.60570507     0.79000
O1230       O  0.05152708  0.58888952  0.64250128    -0.59400
O1231       O  0.01105580  0.56613231  0.61288391    -0.52400
C1232       C  0.03669349  0.59045946  0.62590052     0.71000
O1233       O  0.07946423  0.54831289  0.68930497    -0.73900
O1234       O  0.05781114  0.99549248  0.69109318    -0.54500
C1235       C  0.07966095  0.52745626  0.69683834     0.77000
O1236       O  0.02289563  0.98916618  0.53682091    -0.59100
O1237       O  0.49398986  0.51236686  0.55647569    -0.52200
C1238       C  0.50719849  0.00249084  0.53400855     0.73600
Zr1239     Zr  0.02602870  0.97350392  0.58110064     2.54700
O1240       O  0.08061983  0.00542135  0.55751423    -0.79600
O1241       O  0.50653214  0.92558878  0.53427110    -0.93000
Zr1242     Zr  0.04828976  0.54784127  0.65838332     2.64700
O1243       O  0.10171898  0.57704760  0.63129110    -0.98000
O1244       O  0.06251319  0.59370206  0.70534182    -0.80100
O1245       O  0.04569406  0.99906653  0.63317982    -0.83400
O1246       O  0.03033118  0.52304083  0.60564620    -2.18100
O1247       O  0.40740061  0.92551344  0.59046557    -0.66800
O1248       O  0.42800537  0.97712844  0.58946524    -0.51400
C1249       C  0.40751650  0.94619631  0.58215320     0.72000
O1250       O  0.46459892  0.48236419  0.74368501    -0.59700
O1251       O  0.99272644  0.96104838  0.72506768    -0.51700
C1252       C  0.47736648  0.96857284  0.74702941     0.73800
O1253       O  0.44036593  0.52771565  0.69818019    -0.71100
O1254       O  0.45186452  0.53584995  0.64695393    -0.49800
C1255       C  0.44024561  0.53893749  0.67689450     0.75200
O1256       O  0.42715370  0.88480649  0.64700445    -0.66400
O1257       O  0.47131079  0.90521641  0.66910100    -0.53600
C1258       C  0.44299591  0.88240496  0.66123456     0.73500
Zr1259     Zr  0.43525786  0.92483243  0.62445356     2.77500
O1260       O  0.38079645  0.89818265  0.64981692    -0.97200
O1261       O  0.42069550  0.87599665  0.58133911    -0.78000
Zr1262     Zr  0.46158069  0.49938544  0.70043873     2.70100
O1263       O  0.40681332  0.96617008  0.72669019    -0.79300
O1264       O  0.97272134  0.54244059  0.74861087    -0.98300
Zr1265     Zr  0.00811228  0.96247963  0.66770230     2.21500
Zr1266     Zr  0.47838474  0.51040640  0.61364429     2.11100
O1267       O  0.43952991  0.97397840  0.65041790    -2.47000
O1268       O  0.45494030  0.94911908  0.67608045    -0.79000
O1269       O  0.47121243  0.95992625  0.58854464    -0.71200
O1270       O  0.01242632  0.51185911  0.69338994    -2.32200
O1271       O  0.48638430  0.93589207  0.61471492    -2.28400
O1272       O  0.99659586  0.53472285  0.66602632    -0.73000
H1273       H  0.04407950  0.53809375  0.59161285     0.79000
H1274       H  0.02047493  0.52108792  0.71432104     0.80100
H1275       H  0.41924961  0.97038366  0.65297966     0.82300
H1276       H  0.48442052  0.91563345  0.60565117     0.79900
H1277       H  0.05500561  0.58434043  0.72447826     0.43000
H1278       H  0.96168928  0.53207583  0.76738661     0.41900
H1279       H  0.40284243  0.98219656  0.74203244     0.41600
H1280       H  0.38226043  0.89879484  0.67194868     0.39500
H1281       H  0.43158113  0.88396989  0.56109255     0.42700
H1282       H  0.52599365  0.93166594  0.51901778     0.37500
H1283       H  0.08188820  0.99046998  0.53714173     0.43600
H1284       H  0.11391763  0.59734170  0.64771992     0.40000
H1285       H  0.37519568  0.91343654  0.65345277     0.44900
H1286       H  0.00284406  0.90842848  0.54484287     0.43600
H1287       H  0.10986668  0.56439890  0.62956976     0.43800
H1288       H  0.48770689  0.56439091  0.73826100     0.44100
C1289       C  0.08778581  0.67127131  0.61493895     0.20900
C1290       C  0.11691154  0.70140368  0.61397273    -0.39000
C1291       C  0.11882135  0.72006926  0.59690464     0.19900
C1292       C  0.09356142  0.70971885  0.58219350     0.22500
C1293       C  0.06442762  0.67937354  0.58289565    -0.39500
C1294       C  0.06259238  0.66050456  0.59977250     0.21300
N1295       N  0.08079554  0.64834078  0.62788853    -0.32800
C1296       C  0.05118514  0.62243784  0.62039518    -0.10300
C1297       C  0.03881065  0.62919951  0.60320348    -0.29100
N1298       N  0.10133793  0.73239109  0.56815474    -0.45700
C1299       C  0.13183158  0.75723787  0.57385930    -0.05000
C1300       C  0.14355766  0.75029141  0.59156379    -0.22400
H1301       H  0.12646067  0.66306276  0.02640442     0.19400
H1302       H  0.04483596  0.67092752  0.57085074     0.18200
H1303       H  0.01625778  0.61285933  0.59304552     0.14500
H1304       H  0.15496253  0.72604416  0.01906003     0.14400
H1305       H  0.09598272  0.64961158  0.63947774     0.32500
H1306       H  0.08675621  0.73102184  0.55556192     0.35300
C1307       C  0.28155132  0.86814741  0.53850143     0.20900
C1308       C  0.30681679  0.86592637  0.53450039    -0.39000
C1309       C  0.33579467  0.89524710  0.54325649     0.19900
C1310       C  0.33957909  0.92479078  0.55490901     0.22500
C1311       C  0.31422257  0.92701346  0.55857728    -0.39500
C1312       C  0.28504344  0.89750128  0.55002695     0.21300
N1313       N  0.25100797  0.84331624  0.53582529    -0.32800
C1314       C  0.23458259  0.85669947  0.54602027    -0.10300
C1315       C  0.25514670  0.89058806  0.55465589    -0.29100
N1316       N  0.36778452  0.94804307  0.56697814    -0.45700
C1317       C  0.38138391  0.93281756  0.56386007    -0.05000
C1318       C  0.36252728  0.90016027  0.54830666    -0.22400
H1319       H  0.30356688  0.84275851  0.52746822     0.19400
H1320       H  0.31648609  0.94967890  0.56948548     0.18200
H1321       H  0.24892627  0.90771959  0.56534764     0.14500
H1322       H  0.36611322  0.88165187  0.54492128     0.14400
H1323       H  0.21794200  0.81204374  0.08671041     0.32500
H1324       H  0.37550018  0.97169107  0.58001430     0.35300
C1325       C  0.11910716  0.87517710  0.56005057     0.20900
C1326       C  0.11682717  0.89623596  0.55113915    -0.39000
C1327       C  0.09384806  0.90145892  0.57012384     0.19900
C1328       C  0.07490349  0.88694050  0.59598807     0.22500
C1329       C  0.07675666  0.86552555  0.60440930    -0.39500
C1330       C  0.09944725  0.86020784  0.58543552     0.21300
N1331       N  0.13987068  0.86723981  0.54713269    -0.32800
C1332       C  0.13288450  0.84677839  0.56430220    -0.10300
C1333       C  0.10779426  0.84185676  0.58828335    -0.29100
N1334       N  0.05641248  0.89724351  0.61156564    -0.45700
C1335       C  0.06338101  0.91841402  0.59553412    -0.05000
C1336       C  0.08634766  0.92143583  0.56922709    -0.22400
H1337       H  0.13221565  0.90819296  0.53144731     0.19400
H1338       H  0.06206750  0.85436722  0.62475792     0.18200
H1339       H  0.09766506  0.82757685  0.60617602     0.14500
H1340       H  0.09684587  0.93694375  0.55248701     0.14400
H1341       H  0.15760535  0.87521814  0.52795693     0.32500
H1342       H  0.04024877  0.89051855  0.63210153     0.35300
C1343       C  0.09504734  0.68472660  0.82144743     0.20900
C1344       C  0.09749698  0.66753201  0.83648355    -0.39000
C1345       C  0.06957810  0.63752911  0.84070366     0.19900
C1346       C  0.04131410  0.62531610  0.83049862     0.22500
C1347       C  0.03881354  0.64265280  0.81550142    -0.39500
C1348       C  0.06683186  0.67299411  0.81155435     0.21300
N1349       N  0.11798122  0.71443905  0.81617312    -0.32800
C1350       C  0.10446175  0.72223682  0.80316943    -0.10300
C1351       C  0.07246520  0.69682357  0.79976058    -0.29100
N1352       N  0.01831525  0.59603060  0.83720442    -0.45700
C1353       C  0.03217991  0.58981436  0.85186909    -0.05000
C1354       C  0.06410039  0.61518496  0.85451365    -0.22400
H1355       H  0.11949955  0.67702746  0.84465361     0.19400
H1356       H  0.01666278  0.63342452  0.80790886     0.18200
H1357       H  0.05545209  0.69619475  0.79074492     0.14500
H1358       H  0.08114669  0.61680238  0.86467364     0.14400
H1359       H  0.14103950  0.72913128  0.82276959     0.32500
H1360       H  0.99479962  0.58111103  0.83187527     0.35300
C1361       C  0.25542163  0.86608196  0.79669893     0.20900
C1362       C  0.28182097  0.89612986  0.81069475    -0.39000
C1363       C  0.30771543  0.89622950  0.81155088     0.19900
C1364       C  0.30706332  0.86837673  0.79957149     0.22500
C1365       C  0.28112282  0.83869925  0.78491686    -0.39500
C1366       C  0.25544419  0.83868214  0.78395797     0.21300
N1367       N  0.22631945  0.85834517  0.79740401    -0.32800
C1368       C  0.20753086  0.82567510  0.78536769    -0.10300
C1369       C  0.22537872  0.81291561  0.77595239    -0.29100
N1370       N  0.33230081  0.87337430  0.80725560    -0.45700
C1371       C  0.34945405  0.90467912  0.82403634    -0.05000
C1372       C  0.33520150  0.92000703  0.82680264    -0.22400
H1373       H  0.28146479  0.91732828  0.82189357     0.19400
H1374       H  0.28015671  0.81668538  0.77681702     0.18200
H1375       H  0.21719694  0.78776927  0.76692928     0.14500
H1376       H  0.34254337  0.94430304  0.84042878     0.14400
H1377       H  0.21924380  0.87397054  0.80819412     0.32500
H1378       H  0.33683942  0.85607484  0.80269981     0.35300
C1379       C  0.04850623  0.85864273  0.84591716     0.20900
C1380       C  0.05354328  0.83990759  0.85533744    -0.39000
C1381       C  0.07478847  0.83315257  0.83418542     0.19900
C1382       C  0.09027224  0.84462835  0.80606793     0.22500
C1383       C  0.08496748  0.86309839  0.79648778    -0.39500
C1384       C  0.06334604  0.86947930  0.81741626     0.21300
N1385       N  0.02981981  0.86874008  0.86204912    -0.32800
C1386       C  0.03247758  0.88592290  0.84361104    -0.10300
C1387       C  0.05309331  0.88678136  0.81546542    -0.29100
N1388       N  0.10967707  0.83527762  0.79045187    -0.45700
C1389       C  0.10606010  0.81724812  0.80847906    -0.05000
C1390       C  0.08449055  0.81537165  0.83592431    -0.22400
H1391       H  0.04177587  0.83121699  0.87750277     0.19400
H1392       H  0.09682064  0.87188010  0.77438576     0.18200
H1393       H  0.06021856  0.89908297  0.79657255     0.14500
H1394       H  0.07714704  0.80288808  0.85473167     0.14400
H1395       H  0.01618728  0.86432862  0.88435516     0.32500
H1396       H  0.12406953  0.84034263  0.76862424     0.35300
C1397       C  0.38925179  0.61679892  0.70421023     0.20900
C1398       C  0.41535107  0.61624416  0.68722549    -0.39000
C1399       C  0.41652732  0.59219945  0.69080823     0.19900
C1400       C  0.39377123  0.57068431  0.71030209     0.22500
C1401       C  0.36757539  0.57119130  0.72720792    -0.39500
C1402       C  0.36616825  0.59500391  0.72324409     0.21300
N1403       N  0.38176023  0.63597367  0.70311396    -0.32800
C1404       C  0.35344999  0.62628294  0.72137355    -0.10300
C1405       C  0.34311455  0.60078727  0.73446600    -0.29100
N1406       N  0.39978722  0.54945560  0.70869471    -0.45700
C1407       C  0.42617637  0.55719789  0.68752029    -0.05000
C1408       C  0.43734830  0.58375026  0.67594263    -0.22400
H1409       H  0.43295619  0.63271539  0.67160101     0.19400
H1410       H  0.34920480  0.55377121  0.74163847     0.18200
H1411       H  0.32138682  0.58770050  0.74959884     0.14500
H1412       H  0.45766773  0.59496309  0.65855182     0.14400
H1413       H  0.39464541  0.65351064  0.68937671     0.32500
H1414       H  0.38614691  0.53014473  0.72022686     0.35300
C1415       C  0.38881101  0.76216701  0.70192140     0.20900
C1416       C  0.41784035  0.79222037  0.69982483    -0.39000
C1417       C  0.41753629  0.81233822  0.68696508     0.19900
C1418       C  0.39042894  0.80310713  0.67681272     0.22500
C1419       C  0.36140730  0.77309868  0.67895766    -0.39500
C1420       C  0.36170126  0.75309517  0.69198800     0.21300
N1421       N  0.38284629  0.73873980  0.71329040    -0.32800
C1422       C  0.35163938  0.71452334  0.71065621    -0.10300
C1423       C  0.33769761  0.72272529  0.69747115    -0.29100
N1424       N  0.39622427  0.82669490  0.66592633    -0.45700
C1425       C  0.42719961  0.85121184  0.66934629    -0.05000
C1426       C  0.44133057  0.84316926  0.68236429    -0.22400
H1427       H  0.43903149  0.79946910  0.70778659     0.19400
H1428       H  0.34014410  0.76595247  0.67125198     0.18200
H1429       H  0.31343848  0.70824647  0.69196192     0.14500
H1430       H  0.46558869  0.85800318  0.68803505     0.14400
H1431       H  0.39904880  0.73949767  0.72257123     0.32500
H1432       H  0.37996235  0.82633387  0.65722399     0.35300
C1433       C  0.14969896  0.57513668  0.73682334     0.20900
C1434       C  0.17661682  0.60444256  0.75042124    -0.39000
C1435       C  0.20256810  0.60374625  0.74832678     0.19900
C1436       C  0.20181582  0.57594037  0.73396024     0.22500
C1437       C  0.17456522  0.54637489  0.72102546    -0.39500
C1438       C  0.14856413  0.54705682  0.72301941     0.21300
N1439       N  0.12420527  0.57099461  0.73093592    -0.32800
C1440       C  0.10667014  0.54009118  0.71329560    -0.10300
C1441       C  0.12075065  0.52415459  0.70840134    -0.29100
N1442       N  0.23104765  0.58297894  0.73000187    -0.45700
C1443       C  0.25064429  0.61558739  0.74134767    -0.05000
C1444       C  0.23344329  0.62912020  0.75376030    -0.22400
H1445       H  0.17812564  0.62677807  0.75958498     0.19400
H1446       H  0.17441699  0.52505588  0.70815086     0.18200
H1447       H  0.11330060  0.50023729  0.69334221     0.14500
H1448       H  0.24261470  0.65456417  0.76271603     0.14400
H1449       H  0.12004140  0.58874597  0.73668277     0.32500
H1450       H  0.23762597  0.56711506  0.71732327     0.35300
C1451       C  0.37633436  0.55160508  0.96096281     0.18300
C1452       C  0.40928484  0.61417853  0.48678201    -0.39000
C1453       C  0.34710233  0.57426825  0.97495620     0.19900
C1454       C  0.36018619  0.58521869  0.94646294     0.22500
C1455       C  0.38118855  0.57909429  0.92373458    -0.39500
C1456       C  0.38852209  0.56168821  0.93201061     0.21300
N1457       N  0.38662406  0.53500883  0.96273401    -0.32800
C1458       C  0.40494705  0.53402744  0.93440596    -0.10300
C1459       C  0.40677843  0.55050197  0.91469316    -0.29100
N1460       N  0.34932745  0.60101877  0.94409939    -0.45700
C1461       C  0.32871550  0.59965571  0.97094984    -0.05000
C1462       C  0.38274997  0.64199562  0.49436013    -0.22400
H1463       H  0.39669388  0.60312973  0.50748000     0.19400
H1464       H  0.39076919  0.58691787  0.90106435     0.18200
H1465       H  0.41921287  0.55326516  0.89061052     0.14500
H1466       H  0.36611160  0.63501726  0.51568634     0.14400
H1467       H  0.43226706  0.57767106  0.48303603     0.32500
H1468       H  0.35517680  0.61165347  0.92511771     0.35300
C1469       C  0.33830109  0.73190184  0.95701215     0.20900
C1470       C  0.33532891  0.75046507  0.94470614    -0.39000
C1471       C  0.36299436  0.78110078  0.94192582     0.19900
C1472       C  0.39152076  0.79258367  0.95086829     0.22500
C1473       C  0.39453501  0.77387696  0.96311533    -0.39500
C1474       C  0.36676013  0.74298465  0.96571109     0.21300
N1475       N  0.31557472  0.70165482  0.96099463    -0.32800
C1476       C  0.32945056  0.69299291  0.97218195    -0.10300
C1477       C  0.36150785  0.71824822  0.97543355    -0.29100
N1478       N  0.41437689  0.82235611  0.94522372    -0.45700
C1479       C  0.40019152  0.82959452  0.93239978    -0.05000
C1480       C  0.36815474  0.80446473  0.93007425    -0.22400
H1481       H  0.31314571  0.74151617  0.93743234     0.19400
H1482       H  0.41688627  0.78252836  0.96967952     0.18200
H1483       H  0.37869427  0.71843943  0.98353893     0.14500
H1484       H  0.35100933  0.80330919  0.92063840     0.14400
H1485       H  0.29229172  0.68746254  0.95520653     0.32500
H1486       H  0.43817326  0.83662118  0.94938125     0.35300
C1487       C  0.17902742  0.54971828  0.98068283     0.20900
C1488       C  0.15278724  0.51983086  0.96624593    -0.39000
C1489       C  0.12677762  0.51971490  0.96583287     0.19900
C1490       C  0.12715600  0.54740123  0.97865891     0.22500
C1491       C  0.15300213  0.57694988  0.99358807    -0.39500
C1492       C  0.17881785  0.57699417  0.99407019     0.21300
N1493       N  0.20814591  0.55748038  0.97992636    -0.32800
C1494       C  0.22676496  0.59005360  0.99246715    -0.10300
C1495       C  0.20882140  0.60272449  0.00230777    -0.29100
N1496       N  0.10179385  0.54248400  0.97141646    -0.45700
C1497       C  0.08493822  0.51145085  0.95393090    -0.05000
C1498       C  0.09939163  0.49613947  0.95039852    -0.22400
H1499       H  0.15332228  0.49878435  0.95448080     0.19400
H1500       H  0.15376549  0.59886760  0.00230491     0.18200
H1501       H  0.21697693  0.62785043  0.01171121     0.14500
H1502       H  0.09225616  0.47205349  0.93617712     0.14400
H1503       H  0.21542175  0.54204847  0.96872033     0.32500
H1504       H  0.09700922  0.55970588  0.97668125     0.35300
C1505       C  0.81019883  0.11441752  0.97872310     0.03700
C1506       C  0.77726031  0.09665112  0.98758388    -0.12500
C1507       C  0.76060099  0.11008134  0.99167750     0.01200
C1508       C  0.77769503  0.14203199  0.98805080    -0.11000
C1509       C  0.81048740  0.16001386  0.97908965     0.03700
C1510       C  0.82649832  0.14590356  0.97439243    -0.10400
H1511       H  0.76460787  0.07211890  0.99022261     0.09300
H1512       H  0.76533519  0.15272713  0.99119734     0.06800
H1513       H  0.85171499  0.15926080  0.96698807     0.06600
C1514       C  0.85952825  0.16274676  0.22307618     0.03700
C1515       C  0.87674256  0.19680038  0.23242609    -0.12500
C1516       C  0.86277906  0.21240560  0.23448888     0.01200
C1517       C  0.83119065  0.19348342  0.22763007    -0.11000
C1518       C  0.81369011  0.15951246  0.21829148     0.03700
C1519       C  0.82779923  0.14428304  0.21669352    -0.10400
H1520       H  0.90131427  0.21112362  0.23685474     0.09300
H1521       H  0.82042728  0.20520597  0.22833656     0.06800
H1522       H  0.81445312  0.11807016  0.20918616     0.06600
C1523       C  0.68654921  0.36861559  0.30958254     0.03700
C1524       C  0.71897870  0.38483427  0.29832159    -0.12500
C1525       C  0.73501665  0.37066156  0.29379986     0.01200
C1526       C  0.71773344  0.33966268  0.30025581    -0.11000
C1527       C  0.68529953  0.32303515  0.31087935     0.03700
C1528       C  0.66987877  0.33764504  0.31542884    -0.10400
H1529       H  0.73175051  0.40877436  0.29402061     0.09300
H1530       H  0.72940167  0.32836494  0.29770062     0.06800
H1531       H  0.64492935  0.32513292  0.32418205     0.06600
C1532       C  0.64390094  0.32510210  0.05490600     0.03700
C1533       C  0.67578798  0.34241637  0.06000011    -0.12500
C1534       C  0.68884870  0.32589487  0.05746386     0.01200
C1535       C  0.66973823  0.29188640  0.04959052    -0.11000
C1536       C  0.63779781  0.27407878  0.04436232     0.03700
C1537       C  0.62509658  0.29095991  0.04671764    -0.10400
H1538       H  0.69007607  0.36871574  0.06691597     0.09300
H1539       H  0.67974673  0.27928288  0.04829014     0.06800
H1540       H  0.60038009  0.27767213  0.04339828     0.06600
O1541       O  0.57916155  0.47808600  0.33478190    -0.74800
O1542       O  0.56954203  0.47229513  0.38668337    -0.53700
C1543       C  0.58114211  0.46896878  0.35679122     0.79000
O1544       O  0.59213346  0.12097762  0.38505363    -0.59400
O1545       O  0.54926997  0.10006424  0.36022957    -0.52400
C1546       C  0.57702572  0.12332015  0.36964722     0.71000
O1547       O  0.61418322  0.08027936  0.43873839    -0.73900
O1548       O  0.59394270  0.53053276  0.43980071    -0.54500
C1549       C  0.61351428  0.05920818  0.44704296     0.77000
O1550       O  0.53900380  0.50675688  0.28674962    -0.59100
O1551       O  0.01696596  0.53536838  0.30619199    -0.52200
C1552       C  0.02656704  0.51994662  0.28251451     0.73600
Zr1553     Zr  0.55222783  0.50023283  0.33106845     2.54700
O1554       O  0.60229852  0.52783412  0.29765457    -0.79600
O1555       O  0.03359757  0.44975621  0.28723314    -0.93000
Zr1556     Zr  0.58450363  0.07996933  0.40562329     2.64700
O1557       O  0.63769941  0.10196916  0.37749058    -0.98000
O1558       O  0.60336373  0.13039526  0.44723454    -0.80100
O1559       O  0.57736686  0.52901402  0.38013352    -0.83400
O1560       O  0.56327626  0.05378434  0.35424535    -2.18100
O1561       O  0.93759591  0.45872680  0.34676045    -0.66800
O1562       O  0.95968841  0.51007883  0.34327279    -0.51400
C1563       C  0.93810348  0.47928843  0.33768385     0.72000
O1564       O  0.00387252  0.02124267  0.49709065    -0.59700
O1565       O  0.52975055  0.49875413  0.47755876    -0.51700
C1566       C  0.01258695  0.50600648  0.49981375     0.73800
O1567       O  0.97732921  0.06443931  0.45113356    -0.71100
O1568       O  0.98521664  0.06861411  0.39885047    -0.49800
C1569       C  0.97522669  0.07359157  0.42920102     0.75200
O1570       O  0.95805116  0.41928561  0.40425176    -0.66400
O1571       O  0.00279726  0.43937038  0.42504400    -0.53600
C1572       C  0.97384969  0.41702064  0.41876796     0.73500
Zr1573     Zr  0.96669923  0.45860097  0.37990230     2.77500
O1574       O  0.91432760  0.43758990  0.40980945    -0.97200
O1575       O  0.94797484  0.40844506  0.33779199    -0.78000
Zr1576     Zr  0.00016020  0.03761816  0.45385650     2.70100
O1577       O  0.94612641  0.51134310  0.48271541    -0.79300
O1578       O  0.51899454  0.08552917  0.49693989    -0.98300
Zr1579     Zr  0.54261424  0.49726053  0.41951964     2.21500
Zr1580     Zr  0.01044581  0.04171197  0.36560828     2.11100
O1581       O  0.97464286  0.50975199  0.40298077    -2.47000
O1582       O  0.98953472  0.48547094  0.43000100    -0.79000
O1583       O  0.00164575  0.49077175  0.34155448    -0.71200
O1584       O  0.54866952  0.04740269  0.44373244    -2.32200
O1585       O  0.01657810  0.46645737  0.36829671    -2.28400
O1586       O  0.53415524  0.07101324  0.41601546    -0.73000
H1587       H  0.57665896  0.06738584  0.33881088     0.79000
H1588       H  0.55746361  0.05719984  0.46432695     0.80100
H1589       H  0.95470074  0.50700225  0.40626015     0.82300
H1590       H  0.01349045  0.44564425  0.36043747     0.79900
H1591       H  0.58612368  0.12463840  0.46527325     0.43000
H1592       H  0.52623600  0.10317580  0.48708535     0.41900
H1593       H  0.93144731  0.50309314  0.46691656     0.41600
H1594       H  0.91825745  0.44478695  0.43292730     0.39500
H1595       H  0.92567925  0.39314517  0.34573254     0.42700
H1596       H  0.03417605  0.43521560  0.29534672     0.37500
H1597       H  0.61165340  0.55126940  0.30652932     0.43600
H1598       H  0.65202898  0.11828924  0.39476952     0.40000
H1599       H  0.90796534  0.45067401  0.40796768     0.44900
H1600       H  0.51525911  0.44444703  0.28211125     0.43600
H1601       H  0.64023977  0.08406666  0.37137968     0.43800
H1602       H  0.98632490  0.03898199  0.99657843     0.44100
O1603       O  0.53076241  0.42943247  0.08380985    -0.74800
O1604       O  0.54704018  0.44933770  0.13460390    -0.53700
C1605       C  0.54462553  0.43207845  0.10525144     0.79000
O1606       O  0.55569272  0.07421091  0.09440028    -0.59400
O1607       O  0.50394150  0.05147676  0.09090284    -0.52400
C1608       C  0.53392098  0.07277028  0.08585438     0.71000
O1609       O  0.60283221  0.05558798  0.14454696    -0.73900
O1610       O  0.58512949  0.51848158  0.17046831    -0.54500
C1611       C  0.60651661  0.04234137  0.16048844     0.77000
O1612       O  0.48512002  0.45275164  0.03684829    -0.59100
O1613       O  0.96866273  0.98440302  0.05574826    -0.52200
C1614       C  0.97283096  0.46538487  0.03277897     0.73600
Zr1615     Zr  0.50524243  0.45341590  0.08093930     2.54700
O1616       O  0.54699560  0.46604651  0.03591123    -0.79600
O1617       O  0.97068426  0.39611371  0.05565393    -0.93000
Zr1618     Zr  0.55970713  0.04660854  0.12429007     2.64700
O1619       O  0.59923843  0.05264734  0.07762134    -0.98000
O1620       O  0.59171944  0.10446696  0.14927756    -0.80100
O1621       O  0.54678242  0.49436466  0.11522657    -0.83400
O1622       O  0.51989764  0.00609797  0.08841534    -2.18100
O1623       O  0.89849493  0.42530681  0.13153740    -0.66800
O1624       O  0.91641354  0.46571480  0.10770485    -0.51400
C1625       C  0.89469604  0.43828442  0.11543647     0.72000
O1626       O  0.01080536  0.02854513  0.24572892    -0.59700
O1627       O  0.53262870  0.50089109  0.22598329    -0.51700
C1628       C  0.02256808  0.51641183  0.24903141     0.73800
O1629       O  0.96898935  0.05521334  0.19695197    -0.71100
O1630       O  0.95413739  0.03595577  0.14558847    -0.49800
C1631       C  0.95552784  0.05258199  0.17506945     0.75200
O1632       O  0.94532351  0.41410375  0.19011865    -0.66400
O1633       O  0.99698337  0.43530329  0.19163449    -0.53600
C1634       C  0.96705337  0.41524474  0.19822170     0.73500
Zr1635     Zr  0.94063405  0.43878756  0.15741468     2.77500
O1636       O  0.90049286  0.43480565  0.20288240    -0.97200
O1637       O  0.90831354  0.38018407  0.13649114    -0.78000
Zr1638     Zr  0.99484408  0.03175334  0.20102495     2.70100
O1639       O  0.95146964  0.52402947  0.24576604    -0.79300
O1640       O  0.53348092  0.08963545  0.22328355    -0.98300
Zr1641     Zr  0.52818317  0.48226788  0.16763370     2.21500
Zr1642     Zr  0.97512318  0.00502565  0.11363070     2.11100
O1643       O  0.95262148  0.49090716  0.16590891    -2.47000
O1644       O  0.98030425  0.47969231  0.19301315    -0.79000
O1645       O  0.95891091  0.45084355  0.10520805    -0.71200
O1646       O  0.54140741  0.03435070  0.17644491    -2.32200
O1647       O  0.98633987  0.43963689  0.13216311    -2.28400
O1648       O  0.51394986  0.04594995  0.14936641    -0.73000
H1649       H  0.52663836  0.01195509  0.06774020     0.79000
H1650       H  0.55777483  0.04973779  0.19107739     0.80100
H1651       H  0.93350063  0.48996973  0.17422968     0.82300
H1652       H  0.98202332  0.41880103  0.12992638     0.79900
H1653       H  0.59810321  0.10606040  0.16911873     0.43000
H1654       H  0.52241279  0.09488916  0.24402774     0.41900
H1655       H  0.93384285  0.50084565  0.23946313     0.41600
H1656       H  0.88119499  0.41263855  0.19680081     0.39500
H1657       H  0.89079364  0.37173411  0.15388871     0.42700
H1658       H  0.96848383  0.38465116  0.07056084     0.37500
H1659       H  0.53669869  0.44776875  0.01710652     0.43600
H1660       H  0.60028661  0.03403660  0.07365746     0.40000
H1661       H  0.90718395  0.43427946  0.22114367     0.44900
H1662       H  0.48475772  0.39101271  0.03891638     0.43600
H1663       H  0.58915449  0.04769164  0.05886949     0.43800
H1664       H  0.02049565  0.09110655  0.24946543     0.44100
C1665       C  0.57741641  0.13830829  0.04655099     0.20900
C1666       C  0.60519982  0.16345035  0.03332036    -0.39000
C1667       C  0.60482256  0.18938549  0.03413423     0.19900
C1668       C  0.57878936  0.19042883  0.04716475     0.22500
C1669       C  0.55055268  0.16477020  0.05975475    -0.39500
C1670       C  0.55087497  0.13861634  0.05889005     0.21300
N1671       N  0.57378480  0.11365211  0.05298784    -0.32800
C1672       C  0.54470719  0.09790437  0.06947559    -0.10300
C1673       C  0.52936018  0.11234713  0.07312064    -0.29100
N1674       N  0.58643089  0.22009634  0.04992201    -0.45700
C1675       C  0.61768061  0.23812064  0.03900105    -0.05000
C1676       C  0.62953324  0.21929014  0.02814892    -0.22400
H1677       H  0.63412969  0.21210309  0.63122798     0.19400
H1678       H  0.53062435  0.16607481  0.07137610     0.18200
H1679       H  0.50689837  0.10635714  0.08701802     0.14500
H1680       H  0.66446546  0.26843609  0.60598154     0.14400
H1681       H  0.59084966  0.10900370  0.04820002     0.32500
H1682       H  0.57207252  0.22831568  0.06140166     0.35300
C1683       C  0.76226374  0.35450554  0.08062963     0.20900
C1684       C  0.78214200  0.35352765  0.09393413    -0.39000
C1685       C  0.81338977  0.38126460  0.09571941     0.19900
C1686       C  0.82414031  0.40782435  0.08477066     0.22500
C1687       C  0.80424031  0.40873424  0.07133135    -0.39500
C1688       C  0.77281389  0.38108775  0.06989350     0.21300
N1689       N  0.73132385  0.33166519  0.07739502    -0.32800
C1690       C  0.72185224  0.34368367  0.06459720    -0.10300
C1691       C  0.74715759  0.37457417  0.05961670    -0.29100
N1692       N  0.85460132  0.43149478  0.09011087    -0.45700
C1693       C  0.86313810  0.41996571  0.10480827    -0.05000
C1694       C  0.83810814  0.38864573  0.10856949    -0.22400
H1695       H  0.77372455  0.33293515  0.10282011     0.19400
H1696       H  0.81245033  0.42966722  0.06322873     0.18200
H1697       H  0.74685954  0.39015643  0.04983232     0.14500
H1698       H  0.83792408  0.37350140  0.11958830     0.14400
H1699       H  0.74082338  0.31864032  0.52578290     0.32500
H1700       H  0.86853761  0.45425634  0.08459978     0.35300
C1701       C  0.59997610  0.35569550  0.05839488     0.20900
C1702       C  0.57903305  0.35803574  0.04868797    -0.39000
C1703       C  0.57359177  0.38112429  0.06992746     0.19900
C1704       C  0.58754450  0.39985686  0.09878353     0.22500
C1705       C  0.60853118  0.39766752  0.10833515    -0.39500
C1706       C  0.61443073  0.37517237  0.08688763     0.21300
N1707       N  0.60889989  0.33552184  0.04288699    -0.32800
C1708       C  0.62949929  0.34268930  0.06150417    -0.10300
C1709       C  0.63363131  0.36738504  0.08902442    -0.29100
N1710       N  0.57866855  0.41986555  0.11480583    -0.45700
C1711       C  0.55917448  0.41431768  0.09599643    -0.05000
C1712       C  0.55536749  0.39025427  0.06769790    -0.22400
H1713       H  0.56795188  0.34313882  0.02625084     0.19400
H1714       H  0.61962528  0.41257173  0.13076954     0.18200
H1715       H  0.64797990  0.37751416  0.10850651     0.14500
H1716       H  0.54125467  0.38078812  0.04822485     0.14400
H1717       H  0.60144575  0.31797006  0.02109879     0.32500
H1718       H  0.58584013  0.43665513  0.13706382     0.35300
C1719       C  0.65730423  0.25350064  0.33797832     0.20900
C1720       C  0.65866566  0.23568096  0.35335382    -0.39000
C1721       C  0.63083700  0.20468586  0.35502123     0.19900
C1722       C  0.60371995  0.19222142  0.34219363     0.22500
C1723       C  0.60229473  0.21016645  0.32697473    -0.39500
C1724       C  0.63010026  0.24134050  0.32554354     0.21300
N1725       N  0.68048585  0.28366911  0.33366638    -0.32800
C1726       C  0.66793040  0.29109309  0.31874843    -0.10300
C1727       C  0.63650049  0.26523049  0.31325931    -0.29100
N1728       N  0.58074446  0.16183976  0.34624980    -0.45700
C1729       C  0.59337978  0.15495408  0.36177417    -0.05000
C1730       C  0.62452051  0.18121476  0.36780671    -0.22400
H1731       H  0.67985907  0.24524660  0.36328401     0.19400
H1732       H  0.58110309  0.20060243  0.31704758     0.18200
H1733       H  0.62048918  0.26412369  0.30192368     0.14500
H1734       H  0.64063254  0.18265359  0.37934637     0.14400
H1735       H  0.70317950  0.29864386  0.34129257     0.32500
H1736       H  0.55806832  0.14659406  0.33852683     0.35300
C1737       C  0.81956201  0.42876545  0.28926135     0.20900
C1738       C  0.84719914  0.45907322  0.30069919    -0.39000
C1739       C  0.87215128  0.45837990  0.30318634     0.19900
C1740       C  0.86963599  0.42962700  0.29458333     0.22500
C1741       C  0.84272830  0.39975394  0.28193686    -0.39500
C1742       C  0.81784519  0.40041614  0.27978400     0.21300
N1743       N  0.79047064  0.42183765  0.29201399    -0.32800
C1744       C  0.77003525  0.38885068  0.28505135    -0.10300
C1745       C  0.78674498  0.37492532  0.27595181    -0.29100
N1746       N  0.89358739  0.43408126  0.30448199    -0.45700
C1747       C  0.91176545  0.46587887  0.31950565    -0.05000
C1748       C  0.89957046  0.48212168  0.31862498    -0.22400
H1749       H  0.84807807  0.48105564  0.30990362     0.19400
H1750       H  0.84012968  0.37715741  0.27721361     0.18200
H1751       H  0.77730944  0.34954206  0.27098268     0.14500
H1752       H  0.90792614  0.50707329  0.33035513     0.14400
H1753       H  0.78467519  0.43854565  0.30189203     0.32500
H1754       H  0.89633833  0.41607888  0.30284385     0.35300
C1755       C  0.61217357  0.42491366  0.35030373     0.20900
C1756       C  0.61624585  0.40581230  0.36024932    -0.39000
C1757       C  0.63801215  0.39944061  0.34023049     0.19900
C1758       C  0.65473902  0.41141575  0.31254097     0.22500
C1759       C  0.65019727  0.43008669  0.30221945    -0.39500
C1760       C  0.62814515  0.43628470  0.32217909     0.21300
N1761       N  0.59359848  0.43513343  0.36583139    -0.32800
C1762       C  0.59739323  0.45294865  0.34745603    -0.10300
C1763       C  0.61861262  0.45407651  0.31980260    -0.29100
N1764       N  0.67465545  0.40253025  0.29828467    -0.45700
C1765       C  0.67009682  0.38433030  0.31678256    -0.05000
C1766       C  0.64740487  0.38190355  0.34315308    -0.22400
H1767       H  0.60358873  0.39681995  0.38216394     0.19400
H1768       H  0.66308460  0.43935008  0.28048668     0.18200
H1769       H  0.62651073  0.46676897  0.30101032     0.14500
H1770       H  0.63911642  0.36925236  0.36210303     0.14400
H1771       H  0.57921139  0.43030668  0.38771528     0.32500
H1772       H  0.68994363  0.40798400  0.27699835     0.35300
C1773       C  0.88690560  0.11175516  0.19467561     0.20900
C1774       C  0.88773907  0.08537837  0.17492715    -0.39000
C1775       C  0.90973291  0.08283456  0.18166334     0.19900
C1776       C  0.92943746  0.10479489  0.20625154     0.22500
C1777       C  0.92900290  0.13164114  0.22567481    -0.39500
C1778       C  0.90692053  0.13423217  0.21889129     0.21300
N1779       N  0.86758192  0.11897264  0.19345197    -0.32800
C1780       C  0.87523125  0.14638704  0.21695638    -0.10300
C1781       C  0.89993048  0.15683650  0.23323743    -0.29100
N1782       N  0.94790340  0.09651928  0.20786655    -0.45700
C1783       C  0.94005199  0.06936726  0.18382178    -0.05000
C1784       C  0.91637712  0.06018521  0.16699723    -0.22400
H1785       H  0.87221168  0.06795707  0.15584262     0.19400
H1786       H  0.94451561  0.14905358  0.24476080     0.18200
H1787       H  0.91096020  0.17781320  0.25311967     0.14500
H1788       H  0.90555388  0.03968688  0.14664754     0.14400
H1789       H  0.85057224  0.10620365  0.17711561     0.32500
H1790       H  0.96520157  0.10891371  0.22377255     0.35300
C1791       C  0.92054668  0.29649093  0.23383582     0.20900
C1792       C  0.94912715  0.32266460  0.22258056    -0.39000
C1793       C  0.94911269  0.34917791  0.22450566     0.19900
C1794       C  0.92251998  0.34943669  0.23661266     0.22500
C1795       C  0.89409218  0.32345427  0.24814862    -0.39500
C1796       C  0.89415749  0.29701145  0.24622656     0.21300
N1797       N  0.91323451  0.26693223  0.23047690    -0.32800
C1798       C  0.88183364  0.24827316  0.24032782    -0.10300
C1799       C  0.86933458  0.26653219  0.25090596    -0.29100
N1800       N  0.92680522  0.37483088  0.23114891    -0.45700
C1801       C  0.95618100  0.39072704  0.21525168    -0.05000
C1802       C  0.97116875  0.37591511  0.21125790    -0.22400
H1803       H  0.96921746  0.32158166  0.21121250     0.19400
H1804       H  0.87285020  0.32294259  0.25593939     0.18200
H1805       H  0.84489064  0.25815647  0.25865965     0.14500
H1806       H  0.99357125  0.38173967  0.19729643     0.14400
H1807       H  0.92812499  0.25932037  0.21940994     0.32500
H1808       H  0.90984334  0.37956587  0.23560546     0.35300
C1809       C  0.68839367  0.09596355  0.17395680     0.20900
C1810       C  0.71904710  0.12470506  0.17436906    -0.39000
C1811       C  0.74078729  0.12657157  0.18778116     0.19900
C1812       C  0.73281633  0.10163337  0.19960845     0.22500
C1813       C  0.70200874  0.07285230  0.19934976    -0.39500
C1814       C  0.68009114  0.07107314  0.18615157     0.21300
N1815       N  0.66341453  0.08860325  0.16295075    -0.32800
C1816       C  0.63884931  0.05884243  0.16824632    -0.10300
C1817       C  0.64828432  0.04709840  0.18278797    -0.29100
N1818       N  0.75779352  0.10979914  0.21157901    -0.45700
C1819       C  0.78165061  0.14037734  0.20777589    -0.05000
C1820       C  0.77188104  0.15146209  0.19279543    -0.22400
H1821       H  0.72540279  0.14435956  0.16527824     0.19400
H1822       H  0.69550759  0.05346545  0.20901379     0.18200
H1823       H  0.63380669  0.02426487  0.19008964     0.14500
H1824       H  0.78564048  0.17466647  0.18642655     0.14400
H1825       H  0.66301920  0.10318939  0.15287084     0.32500
H1826       H  0.75826637  0.09578663  0.22246221     0.35300
C1827       C  0.93241882  0.10966098  0.46646797     0.18300
C1828       C  0.85382238  0.05729487  0.98490638    -0.39000
C1829       C  0.90525877  0.13488137  0.48161907     0.19900
C1830       C  0.92102704  0.14860093  0.45486274     0.22500
C1831       C  0.94259166  0.14299113  0.43264479    -0.39500
C1832       C  0.94739532  0.12279556  0.43931754     0.21300
N1833       N  0.94069941  0.09075510  0.46677964    -0.32800
C1834       C  0.96068963  0.09155455  0.43935672    -0.10300
C1835       C  0.96536508  0.11128234  0.42166270    -0.29100
N1836       N  0.91110327  0.16530975  0.45263757    -0.45700
C1837       C  0.88828889  0.16180287  0.47768688    -0.05000
C1838       C  0.82417626  0.08157187  0.99105639    -0.22400
H1839       H  0.84142171  0.04611311  0.00552384     0.19400
H1840       H  0.95413811  0.15291858  0.41118754     0.18200
H1841       H  0.97984975  0.11635624  0.39880562     0.14500
H1842       H  0.80782799  0.07454828  0.01253787     0.14400
H1843       H  0.87919638  0.02339652  0.98220715     0.32500
H1844       H  0.91840937  0.17717666  0.43424911     0.35300
C1845       C  0.89431960  0.28946182  0.45581523     0.20900
C1846       C  0.89177150  0.30750366  0.44206856    -0.39000
C1847       C  0.91946312  0.33828960  0.43945279     0.19900
C1848       C  0.94751977  0.35041900  0.45005698     0.22500
C1849       C  0.95002798  0.33239166  0.46398453    -0.39500
C1850       C  0.92235985  0.30134494  0.46621713     0.21300
N1851       N  0.87177361  0.25898783  0.45948248    -0.32800
C1852       C  0.88544512  0.25104927  0.47212529    -0.10300
C1853       C  0.91707327  0.27702383  0.47673454    -0.29100
N1854       N  0.97058840  0.38002541  0.44407211    -0.45700
C1855       C  0.95711230  0.38664784  0.42936973    -0.05000
C1856       C  0.92521683  0.36118699  0.42618332    -0.22400
H1857       H  0.86997925  0.29798419  0.43341526     0.19400
H1858       H  0.97205175  0.34156089  0.47182479     0.18200
H1859       H  0.93405483  0.27793981  0.48615968     0.14500
H1860       H  0.90851728  0.35958269  0.41543903     0.14400
H1861       H  0.84882574  0.24418952  0.45256960     0.32500
H1862       H  0.99407153  0.39468662  0.44943293     0.35300
C1863       C  0.73579929  0.10759737  0.48465750     0.20900
C1864       C  0.70915167  0.07821874  0.47022872    -0.39000
C1865       C  0.68260596  0.07828814  0.47275448     0.19900
C1866       C  0.68273533  0.10564096  0.48838242     0.22500
C1867       C  0.70899018  0.13463550  0.50344488    -0.39500
C1868       C  0.73543544  0.13456254  0.50084713     0.21300
N1869       N  0.76535599  0.11542208  0.48123396    -0.32800
C1870       C  0.78402163  0.14772020  0.49488447    -0.10300
C1871       C  0.76587025  0.16017058  0.50796482    -0.29100
N1872       N  0.65708536  0.10147471  0.48281863    -0.45700
C1873       C  0.64034749  0.07125674  0.46358768    -0.05000
C1874       C  0.65514274  0.05573055  0.45733813    -0.22400
H1875       H  0.70981213  0.05758493  0.45608070     0.19400
H1876       H  0.70966183  0.15645958  0.51422705     0.18200
H1877       H  0.77422294  0.18524464  0.51876688     0.14500
H1878       H  0.64841714  0.03247848  0.44097455     0.14400
H1879       H  0.77281907  0.10042788  0.46779163     0.32500
H1880       H  0.65231280  0.11890243  0.48988422     0.35300
C1881       C  0.86988958  0.17507706  0.48237109     0.03700
C1882       C  0.83662714  0.15609756  0.48907528    -0.12500
C1883       C  0.81930436  0.16805637  0.49035225     0.01200
C1884       C  0.83575244  0.19937601  0.48533797    -0.11000
C1885       C  0.86884259  0.21862006  0.47874778     0.03700
C1886       C  0.88569816  0.20622494  0.47731549    -0.10400
H1887       H  0.82425307  0.13183298  0.49236329     0.09300
H1888       H  0.82263267  0.20863314  0.48597881     0.06800
H1889       H  0.91117933  0.22052726  0.47155447     0.06600
C1890       C  0.83572171  0.13741744  0.71940979     0.03700
C1891       C  0.85212829  0.16776092  0.71220920    -0.12500
C1892       C  0.83609982  0.18093689  0.71350040     0.01200
C1893       C  0.80327611  0.16333526  0.72230535    -0.11000
C1894       C  0.78640917  0.13279339  0.72932212     0.03700
C1895       C  0.80286018  0.12005219  0.72810159    -0.10400
H1896       H  0.87734995  0.18076070  0.70499095     0.09300
H1897       H  0.79061966  0.17306762  0.72292292     0.06800
H1898       H  0.79001216  0.09631277  0.73298124     0.06600
C1899       C  0.62370525  0.30397922  0.80203345     0.03700
C1900       C  0.65671051  0.32164301  0.79381612    -0.12500
C1901       C  0.67301399  0.30822070  0.79118378     0.01200
C1902       C  0.65561607  0.27670827  0.79613923    -0.11000
C1903       C  0.62275349  0.25883620  0.80415191     0.03700
C1904       C  0.60695537  0.27259214  0.80679730    -0.10400
H1905       H  0.66965273  0.34609258  0.79077739     0.09300
H1906       H  0.66774741  0.26621096  0.79468553     0.06800
H1907       H  0.58164638  0.25936093  0.81370468     0.06600
C1908       C  0.64896387  0.33248189  0.56124612     0.03700
C1909       C  0.68199625  0.35027875  0.55325256    -0.12500
C1910       C  0.69858718  0.33745168  0.55150938     0.01200
C1911       C  0.68173061  0.30670812  0.55805498    -0.11000
C1912       C  0.64882656  0.28874781  0.56566776     0.03700
C1913       C  0.63255108  0.30146382  0.56669227    -0.10400
H1914       H  0.69489783  0.37440504  0.54937510     0.09300
H1915       H  0.69416459  0.29694444  0.55818594     0.06800
H1916       H  0.60713768  0.28761191  0.57300142     0.06600
O1917       O  0.51367648  0.41082536  0.83032011    -0.74800
O1918       O  0.50583976  0.40684829  0.88270915    -0.53700
C1919       C  0.51609566  0.40216529  0.85242170     0.79000
O1920       O  0.53331070  0.05767961  0.87648428    -0.59400
O1921       O  0.48846005  0.03710586  0.85556420    -0.52400
C1922       C  0.51705893  0.05995677  0.86273048     0.71000
O1923       O  0.55876578  0.01863750  0.92780381    -0.73900
O1924       O  0.53315917  0.46546626  0.93410241    -0.54500
C1925       C  0.55792772  0.99851008  0.93804553     0.77000
O1926       O  0.48429742  0.45033535  0.78285606    -0.59100
O1927       O  0.96161845  0.47804501  0.80406731    -0.52200
C1928       C  0.97453432  0.46595302  0.78037812     0.73600
Zr1929     Zr  0.48962036  0.43583089  0.82684381     2.54700
O1930       O  0.54120372  0.46129791  0.79528845    -0.79600
O1931       O  0.96449180  0.38440038  0.78899596    -0.93000
Zr1932     Zr  0.52721264  0.01753686  0.89671321     2.64700
O1933       O  0.57646547  0.03487682  0.86105120    -0.98000
O1934       O  0.55033539  0.06930252  0.93655823    -0.80100
O1935       O  0.51586231  0.46437471  0.87522831    -0.83400
O1936       O  0.50156831  0.98880377  0.84822798    -2.18100
O1937       O  0.87727879  0.39780741  0.84813968    -0.66800
O1938       O  0.90031333  0.44822866  0.84115554    -0.51400
C1939       C  0.87798768  0.41775722  0.83772829     0.72000
O1940       O  0.95736803  0.97434508  0.99596406    -0.59700
O1941       O  0.47642614  0.44453170  0.97571096    -0.51700
C1942       C  0.96746945  0.46033117  0.99931936     0.73800
O1943       O  0.92486678  0.01163674  0.94995271    -0.71100
O1944       O  0.93051007  0.01374672  0.89735100    -0.49800
C1945       C  0.92231254  0.02041965  0.92802454     0.75200
O1946       O  0.89976090  0.36175610  0.90788274    -0.66400
O1947       O  0.94535356  0.38186076  0.92690485    -0.53600
C1948       C  0.91598293  0.35984167  0.92217564     0.73500
Zr1949     Zr  0.90744424  0.39921410  0.88136720     2.77500
O1950       O  0.85610776  0.38052212  0.91342608    -0.97200
O1951       O  0.88636218  0.34738771  0.84169429    -0.78000
Zr1952     Zr  0.94467463  0.98176110  0.95185305     2.70100
O1953       O  0.88985892  0.44909146  0.97856252    -0.79300
O1954       O  0.46904860  0.03338077  0.99065354    -0.98300
Zr1955     Zr  0.48136936  0.43447534  0.91612340     2.21500
Zr1956     Zr  0.95223920  0.98340576  0.86351296     2.11100
O1957       O  0.91652182  0.45092322  0.90262431    -2.47000
O1958       O  0.93257121  0.42781622  0.93028991    -0.79000
O1959       O  0.94071311  0.42894087  0.84047056    -0.71200
O1960       O  0.49394838  0.98871974  0.93792183    -2.32200
O1961       O  0.95682701  0.40593422  0.86780070    -2.28400
O1962       O  0.47805499  0.01125154  0.91056484    -0.73000
H1963       H  0.51438217  0.00126065  0.83175938     0.79000
H1964       H  0.50483128  0.99997601  0.95731629     0.80100
H1965       H  0.89660300  0.44834641  0.90650609     0.82300
H1966       H  0.95326601  0.38491600  0.86066528     0.79900
H1967       H  0.54089886  0.06342565  0.95794305     0.43000
H1968       H  0.47517414  0.04934264  0.97892873     0.41900
H1969       H  0.88742513  0.46568687  0.99521545     0.41600
H1970       H  0.84235239  0.37687163  0.89935926     0.39500
H1971       H  0.86308596  0.33607387  0.84565826     0.42700
H1972       H  0.96110525  0.36901214  0.79963893     0.37500
H1973       H  0.53864962  0.44451440  0.77503692     0.43600
H1974       H  0.58867438  0.05885037  0.86625004     0.40000
H1975       H  0.84736328  0.35845150  0.91478554     0.44900
H1976       H  0.44442407  0.38004304  0.78420178     0.43600
H1977       H  0.58815142  0.03056415  0.86961670     0.43800
H1978       H  0.00546015  0.08545327  0.51202420     0.44100
O1979       O  0.54826230  0.44740072  0.58387914    -0.74800
O1980       O  0.53472864  0.43757263  0.63459077    -0.53700
C1981       C  0.54806634  0.43614300  0.60536979     0.79000
O1982       O  0.55228609  0.08857953  0.64117733    -0.59400
O1983       O  0.51086860  0.06631017  0.61323388    -0.52400
C1984       C  0.53715947  0.09033111  0.62514741     0.71000
O1985       O  0.57962012  0.04629550  0.68632868    -0.73900
O1986       O  0.55811069  0.49437051  0.68813768    -0.54500
C1987       C  0.57931811  0.02514851  0.69391073     0.77000
O1988       O  0.52137502  0.48947014  0.53667187    -0.59100
O1989       O  0.99520339  0.01169444  0.55620366    -0.52200
C1990       C  0.00854534  0.50144281  0.53282101     0.73600
Zr1991     Zr  0.52368659  0.47178864  0.57959885     2.54700
O1992       O  0.57692302  0.49846744  0.55139427    -0.79600
O1993       O  0.00436206  0.42284759  0.53884824    -0.93000
Zr1994     Zr  0.54802067  0.04709665  0.65748673     2.64700
O1995       O  0.60116553  0.07452978  0.62926871    -0.98000
O1996       O  0.56389196  0.09310524  0.70436292    -0.80100
O1997       O  0.54440957  0.49724507  0.63100636    -0.83400
O1998       O  0.52875641  0.02250284  0.60552368    -2.18100
O1999       O  0.90788626  0.42330082  0.58988851    -0.66800
O2000       O  0.92775100  0.47489760  0.58960990    -0.51400
C2001       C  0.90710974  0.44389398  0.58266466     0.72000
O2002       O  0.96445031  0.98297397  0.74459970    -0.59700
O2003       O  0.49244339  0.45997789  0.72365587    -0.51700
C2004       C  0.97777572  0.46978287  0.74735744     0.73800
O2005       O  0.93968875  0.02646586  0.69692849    -0.71100
O2006       O  0.95219982  0.03434414  0.64544241    -0.49800
C2007       C  0.93986224  0.03722793  0.67501228     0.75200
O2008       O  0.93040828  0.38432258  0.64391027    -0.66400
O2009       O  0.97363411  0.40565847  0.66834827    -0.53600
C2010       C  0.94595865  0.38228876  0.65892848     0.73500
Zr2011     Zr  0.93794243  0.42456387  0.62263740     2.77500
O2012       O  0.88327777  0.39678358  0.64708236    -0.97200
O2013       O  0.92646721  0.37839206  0.57673826    -0.78000
Zr2014     Zr  0.96096679  0.99883624  0.70064063     2.70100
O2015       O  0.90492666  0.46491116  0.72137062    -0.79300
O2016       O  0.47667007  0.04425968  0.74930527    -0.98300
Zr2017     Zr  0.50721368  0.46161844  0.66642913     2.21500
Zr2018     Zr  0.97939549  0.00989053  0.61345143     2.11100
O2019       O  0.94071574  0.47289600  0.64835591    -2.47000
O2020       O  0.95613771  0.44882434  0.67514982    -0.79000
O2021       O  0.97376969  0.46018141  0.58730044    -0.71200
O2022       O  0.51245034  0.01162538  0.69312810    -2.32200
O2023       O  0.98934360  0.43670729  0.61467787    -2.28400
O2024       O  0.49666380  0.03518765  0.66681221    -0.73000
H2025       H  0.54238826  0.03736736  0.59129393     0.79000
H2026       H  0.52102945  0.02070800  0.71372738     0.80100
H2027       H  0.92016607  0.46857236  0.65043972     0.82300
H2028       H  0.98798147  0.41675977  0.60578973     0.79900
H2029       H  0.54387314  0.09065069  0.71520642     0.43000
H2030       H  0.46107173  0.03465474  0.76750249     0.41900
H2031       H  0.90446665  0.47515346  0.74492786     0.41600
H2032       H  0.87335720  0.37359174  0.63592112     0.39500
H2033       H  0.90335664  0.36200688  0.58022671     0.42700
H2034       H  0.01928819  0.42882729  0.51907971     0.37500
H2035       H  0.57377247  0.49019968  0.52794238     0.43600
H2036       H  0.60564542  0.05789423  0.62078778     0.40000
H2037       H  0.88462508  0.39802427  0.66952978     0.44900
H2038       H  0.48804181  0.42182046  0.52671324     0.43600
H2039       H  0.59876506  0.07741185  0.60961359     0.43800
H2040       H  0.98992538  0.04691741  0.75786045     0.44100
C2041       C  0.58705313  0.17184288  0.61622254     0.20900
C2042       C  0.61523926  0.20304897  0.61767314    -0.39000
C2043       C  0.61775162  0.22136375  0.59963791     0.19900
C2044       C  0.59377884  0.20972588  0.58197969     0.22500
C2045       C  0.56552617  0.17846784  0.58051577    -0.39500
C2046       C  0.56319573  0.15993991  0.59822194     0.21300
N2047       N  0.58001657  0.14895627  0.62929235    -0.32800
C2048       C  0.55166701  0.12212422  0.61925685    -0.10300
C2049       C  0.54020738  0.12807651  0.60007648    -0.29100
N2050       N  0.60201371  0.23198972  0.56706108    -0.45700
C2051       C  0.63154629  0.25779025  0.57505490    -0.05000
C2052       C  0.64220322  0.25204518  0.59526049    -0.22400
H2053       H  0.62640229  0.16390517  0.02517123     0.19400
H2054       H  0.54706686  0.16904569  0.56611392     0.18200
H2055       H  0.51879949  0.11098015  0.58781988     0.14500
H2056       H  0.65372200  0.22704723  0.01964327     0.14400
H2057       H  0.59431768  0.15105959  0.64297579     0.32500
H2058       H  0.58843941  0.22975659  0.55231303     0.35300
C2059       C  0.78041134  0.36777720  0.53840975     0.20900
C2060       C  0.80527627  0.36496516  0.53474696    -0.39000
C2061       C  0.83387995  0.39366152  0.54566938     0.19900
C2062       C  0.83767684  0.42314717  0.55892852     0.22500
C2063       C  0.81271852  0.42595894  0.56253308    -0.39500
C2064       C  0.78391719  0.39709362  0.55183483     0.21300
N2065       N  0.74998529  0.34328423  0.53414584    -0.32800
C2066       C  0.73362704  0.35677547  0.54552576    -0.10300
C2067       C  0.75417226  0.39050028  0.55609954    -0.29100
N2068       N  0.86582957  0.44583078  0.57123216    -0.45700
C2069       C  0.87962861  0.43042674  0.56640668    -0.05000
C2070       C  0.86056341  0.39798934  0.55012944    -0.22400
H2071       H  0.80194583  0.34169939  0.52607487     0.19400
H2072       H  0.81497154  0.44850362  0.57465801     0.18200
H2073       H  0.74787351  0.40746982  0.56829810     0.14500
H2074       H  0.86444247  0.37937530  0.54491877     0.14400
H2075       H  0.71741002  0.30963210  0.08442763     0.32500
H2076       H  0.87379483  0.46940447  0.58477006     0.35300
C2077       C  0.61996984  0.37755978  0.56369867     0.20900
C2078       C  0.61982423  0.40072613  0.55633851    -0.39000
C2079       C  0.59588830  0.40484326  0.57373962     0.19900
C2080       C  0.57410528  0.38744357  0.59692432     0.22500
C2081       C  0.57404607  0.36411996  0.60406394    -0.39500
C2082       C  0.59774894  0.35982570  0.58645436     0.21300
N2083       N  0.64082230  0.36981718  0.55134733    -0.32800
C2084       C  0.63168663  0.34688494  0.56627992    -0.10300
C2085       C  0.60478171  0.33996173  0.58825311    -0.29100
N2086       N  0.55446737  0.39650062  0.61086002    -0.45700
C2087       C  0.56350824  0.41953863  0.59621156    -0.05000
C2088       C  0.58920565  0.42541990  0.57280222    -0.22400
H2089       H  0.63722931  0.41471507  0.53864455     0.19400
H2090       H  0.55702336  0.35058974  0.62223698     0.18200
H2091       H  0.59264179  0.32352081  0.60432125     0.14500
H2092       H  0.60167752  0.44283347  0.55777181     0.14400
H2093       H  0.66008669  0.37965110  0.53394321     0.32500
H2094       H  0.53595965  0.38749860  0.62918643     0.35300
C2095       C  0.59610979  0.18816134  0.82800923     0.20900
C2096       C  0.59883487  0.16944982  0.84038849    -0.39000
C2097       C  0.57070925  0.13946005  0.84448583     0.19900
C2098       C  0.54202611  0.12870232  0.83664369     0.22500
C2099       C  0.53930636  0.14751369  0.82426757    -0.39500
C2100       C  0.56749776  0.17771924  0.82037218     0.21300
N2101       N  0.61927196  0.21787314  0.82272869    -0.32800
C2102       C  0.60546714  0.22673724  0.81169845    -0.10300
C2103       C  0.57307803  0.20217625  0.80989595    -0.29100
N2104       N  0.51890957  0.09905779  0.84247899    -0.45700
C2105       C  0.53311236  0.09106882  0.85416229    -0.05000
C2106       C  0.56535510  0.11574428  0.85588140    -0.22400
H2107       H  0.62120095  0.17771963  0.84654024     0.19400
H2108       H  0.51691070  0.13934448  0.81831614     0.18200
H2109       H  0.55584731  0.20218645  0.80216355     0.14500
H2110       H  0.58267190  0.11603123  0.86387547     0.14400
H2111       H  0.64280054  0.23154636  0.82751885     0.32500
H2112       H  0.49508176  0.08508629  0.83856314     0.35300
C2113       C  0.75674398  0.36729575  0.79548033     0.20900
C2114       C  0.78389944  0.39727819  0.80823107    -0.39000
C2115       C  0.80936524  0.39661721  0.80890265     0.19900
C2116       C  0.80759020  0.36813985  0.79804349     0.22500
C2117       C  0.78089730  0.33851976  0.78466112    -0.39500
C2118       C  0.75573797  0.33928048  0.78371432     0.21300
N2119       N  0.72781648  0.36026502  0.79685587    -0.32800
C2120       C  0.70823528  0.32745909  0.78628667    -0.10300
C2121       C  0.72530874  0.31389854  0.77692641    -0.29100
N2122       N  0.83262852  0.37264843  0.80554271    -0.45700
C2123       C  0.85076903  0.40427008  0.82108811    -0.05000
C2124       C  0.83737484  0.42025760  0.82319352    -0.22400
H2125       H  0.78443520  0.41903737  0.81871543     0.19400
H2126       H  0.77902399  0.31605639  0.77752629     0.18200
H2127       H  0.71635758  0.28850214  0.76897915     0.14500
H2128       H  0.84556849  0.44497095  0.83598341     0.14400
H2129       H  0.72134760  0.37641558  0.80734140     0.32500
H2130       H  0.83631459  0.35486757  0.80185158     0.35300
C2131       C  0.54732145  0.35789616  0.84436407     0.20900
C2132       C  0.55227915  0.33924815  0.85385294    -0.39000
C2133       C  0.57400887  0.33315363  0.83317564     0.19900
C2134       C  0.58998107  0.34498326  0.80529642     0.22500
C2135       C  0.58450412  0.36314431  0.79540095    -0.39500
C2136       C  0.56243418  0.36901224  0.81600655     0.21300
N2137       N  0.52880971  0.36808322  0.86065561    -0.32800
C2138       C  0.53180802  0.38557102  0.84245330    -0.10300
C2139       C  0.55238147  0.38651381  0.81424420    -0.29100
N2140       N  0.61031340  0.33667153  0.79060138    -0.45700
C2141       C  0.60666512  0.31897930  0.80909694    -0.05000
C2142       C  0.58422133  0.31627214  0.83575383    -0.22400
H2143       H  0.54038474  0.33047054  0.87596190     0.19400
H2144       H  0.59678940  0.37237422  0.77357876     0.18200
H2145       H  0.55971938  0.39913070  0.79556535     0.14500
H2146       H  0.57671179  0.30392551  0.85474234     0.14400
H2147       H  0.51515581  0.36361724  0.88294316     0.32500
H2148       H  0.62533483  0.34224312  0.76918948     0.35300
C2149       C  0.88538745  0.10974772  0.69450068     0.20900
C2150       C  0.90839936  0.10548603  0.67433931    -0.39000
C2151       C  0.91220088  0.08507665  0.68190438     0.19900
C2152       C  0.89463999  0.07011895  0.70772418     0.22500
C2153       C  0.87130774  0.07417299  0.72781491    -0.39500
C2154       C  0.86732113  0.09453637  0.72007456     0.21300
N2155       N  0.87682293  0.12731103  0.69165437    -0.32800
C2156       C  0.85285520  0.12313494  0.71535085    -0.10300
C2157       C  0.84620312  0.10282504  0.73367192    -0.29100
N2158       N  0.90267688  0.05150986  0.70928341    -0.45700
C2159       C  0.92516968  0.05455792  0.68399440    -0.05000
C2160       C  0.93173877  0.07528281  0.66645810    -0.22400
H2161       H  0.92207083  0.11691210  0.65397893     0.19400
H2162       H  0.85708433  0.06207883  0.74765013     0.18200
H2163       H  0.82823605  0.09499909  0.75393882     0.14500
H2164       H  0.94836238  0.08198079  0.64503961     0.14400
H2165       H  0.88604217  0.14039293  0.67385146     0.32500
H2166       H  0.89294458  0.03704081  0.72586018     0.35300
C2167       C  0.89119452  0.25967787  0.69511572     0.20900
C2168       C  0.92073325  0.28903104  0.69178480    -0.39000
C2169       C  0.92043492  0.31047662  0.68119907     0.19900
C2170       C  0.89282717  0.30307876  0.67435189     0.22500
C2171       C  0.86335101  0.27385641  0.67779913    -0.39500
C2172       C  0.86367645  0.25252390  0.68844410     0.21300
N2173       N  0.88503495  0.23528538  0.70489882    -0.32800
C2174       C  0.85327818  0.21237443  0.70451823    -0.10300
C2175       C  0.83925828  0.22241925  0.69428705    -0.29100
N2176       N  0.89868387  0.32748766  0.66501894    -0.45700
C2177       C  0.93019773  0.35077781  0.66620236    -0.05000
C2178       C  0.94466824  0.34109096  0.67612353    -0.22400
H2179       H  0.94228924  0.29479497  0.69717425     0.19400
H2180       H  0.84174158  0.26821355  0.67270224     0.18200
H2181       H  0.81460535  0.20942182  0.69103790     0.14500
H2182       H  0.96942904  0.35468182  0.67941059     0.14400
H2183       H  0.90152629  0.23472446  0.71185513     0.32500
H2184       H  0.88211594  0.32850640  0.65887639     0.35300
C2185       C  0.65014542  0.07250598  0.73209088     0.20900
C2186       C  0.67716232  0.10190065  0.74526631    -0.39000
C2187       C  0.70331435  0.10141876  0.74252455     0.19900
C2188       C  0.70267639  0.07369415  0.72799088     0.22500
C2189       C  0.67534812  0.04399968  0.71526294    -0.39500
C2190       C  0.64909490  0.04449524  0.71786275     0.21300
N2191       N  0.62432646  0.06826326  0.72710119    -0.32800
C2192       C  0.60662530  0.03740698  0.70952890    -0.10300
C2193       C  0.62093518  0.02150672  0.70377480    -0.29100
N2194       N  0.73198466  0.08092181  0.72397913    -0.45700
C2195       C  0.75141960  0.11355331  0.73546634    -0.05000
C2196       C  0.73413788  0.12693596  0.74786733    -0.22400
H2197       H  0.67850067  0.12414014  0.75472778     0.19400
H2198       H  0.67524994  0.02272574  0.70226072     0.18200
H2199       H  0.61336414  0.99761415  0.68854655     0.14500
H2200       H  0.74319334  0.15234149  0.75697877     0.14400
H2201       H  0.62003357  0.08597713  0.73335070     0.32500
H2202       H  0.73869277  0.06515411  0.71136929     0.35300
C2203       C  0.87764926  0.05435179  0.96408710     0.18300
C2204       C  0.91063175  0.11516787  0.48871576    -0.39000
C2205       C  0.84651015  0.07489160  0.97671600     0.19900
C2206       C  0.86216951  0.08889586  0.95014934     0.22500
C2207       C  0.88581830  0.08584944  0.92930597    -0.39500
C2208       C  0.89274331  0.06786253  0.93717393     0.21300
N2209       N  0.88749918  0.03710291  0.96526245    -0.32800
C2210       C  0.90848107  0.03908686  0.93852298    -0.10300
C2211       C  0.91253262  0.05831446  0.92059141    -0.29100
N2212       N  0.85100521  0.10431698  0.94747365    -0.45700
C2213       C  0.82782704  0.09999983  0.97232450    -0.05000
C2214       C  0.88402264  0.14304937  0.49648458    -0.22400
H2215       H  0.89813682  0.10418049  0.50945816     0.19400
H2216       H  0.89747869  0.09612908  0.90807245     0.18200
H2217       H  0.92706332  0.06352602  0.89778435     0.14500
H2218       H  0.86725305  0.13584806  0.51768048     0.14400
H2219       H  0.93267152  0.07751735  0.48410302     0.32500
H2220       H  0.85850031  0.11676343  0.92955962     0.35300
C2221       C  0.83630547  0.23306048  0.96058734     0.20900
C2222       C  0.83317094  0.25284878  0.95056050    -0.39000
C2223       C  0.86130952  0.28282714  0.94626243     0.19900
C2224       C  0.89039878  0.29256197  0.95175573     0.22500
C2225       C  0.89350589  0.27275099  0.96193230    -0.39500
C2226       C  0.86530112  0.24257303  0.96600769     0.21300
N2227       N  0.81328382  0.20293148  0.96496062    -0.32800
C2228       C  0.82753551  0.19286065  0.97322831    -0.10300
C2229       C  0.86009849  0.21711048  0.97415491    -0.29100
N2230       N  0.91368272  0.32159887  0.94453689    -0.45700
C2231       C  0.89926356  0.33016041  0.93405664    -0.05000
C2232       C  0.86658664  0.30665831  0.93503968    -0.22400
H2233       H  0.81055689  0.24514543  0.94574173     0.19400
H2234       H  0.91626418  0.27996864  0.96567115     0.18200
H2235       H  0.87771780  0.21624248  0.97973878     0.14500
H2236       H  0.84911258  0.30668906  0.92782102     0.14400
H2237       H  0.78951560  0.18978810  0.96131470     0.32500
H2238       H  0.93792383  0.33434672  0.94580277     0.35300
C2239       C  0.67741953  0.04965166  0.98507158     0.20900
C2240       C  0.65145066  0.01984947  0.97016131    -0.39000
C2241       C  0.62581652  0.01986776  0.96870810     0.19900
C2242       C  0.62621684  0.04757285  0.98112884     0.22500
C2243       C  0.65171942  0.07701775  0.99667481    -0.39500
C2244       C  0.67724167  0.07696750  0.99808161     0.21300
N2245       N  0.70654830  0.05747178  0.98432786    -0.32800
C2246       C  0.72527682  0.09013300  0.99628948    -0.10300
C2247       C  0.70730127  0.10277735  0.00610325    -0.29100
N2248       N  0.60141482  0.04283048  0.97274738    -0.45700
C2249       C  0.58490142  0.01187573  0.95498388    -0.05000
C2250       C  0.59901712  0.99646966  0.95234220    -0.22400
H2251       H  0.65208247  0.99884911  0.95853216     0.19400
H2252       H  0.65262259  0.09900196  0.00489103     0.18200
H2253       H  0.71553741  0.12795424  0.01485609     0.14500
H2254       H  0.59205493  0.97241427  0.93819262     0.14400
H2255       H  0.71382290  0.04204636  0.97303235     0.32500
H2256       H  0.59675266  0.06007995  0.97756811     0.35300
C2257       C  0.80990656  0.61315695  0.97437680     0.03700
C2258       C  0.77689872  0.59467883  0.98175664    -0.12500
C2259       C  0.75997734  0.60745457  0.98486229     0.01200
C2260       C  0.77669380  0.63943271  0.98149263    -0.11000
C2261       C  0.80976641  0.65824893  0.97401244     0.03700
C2262       C  0.82611837  0.64469911  0.97036869    -0.10400
H2263       H  0.76438571  0.57008047  0.98415116     0.09300
H2264       H  0.76376915  0.64935507  0.98385686     0.06800
H2265       H  0.85149057  0.65839072  0.96395651     0.06600
C2266       C  0.86018319  0.66396069  0.21999304     0.03700
C2267       C  0.87749130  0.69777445  0.23157194    -0.12500
C2268       C  0.86414633  0.71426425  0.23506122     0.01200
C2269       C  0.83270683  0.69634807  0.22812875    -0.11000
C2270       C  0.81503273  0.66248381  0.21679440     0.03700
C2271       C  0.82895131  0.64644419  0.21276580    -0.10400
H2272       H  0.90177600  0.71133645  0.23660508     0.09300
H2273       H  0.82223225  0.70878877  0.23041844     0.06800
H2274       H  0.81569787  0.62037944  0.20342851     0.06600
C2275       C  0.68573065  0.86843667  0.31039223     0.03700
C2276       C  0.71828037  0.88443979  0.30016260    -0.12500
C2277       C  0.73342789  0.86925221  0.29500202     0.01200
C2278       C  0.71503683  0.83719524  0.29881782    -0.11000
C2279       C  0.68243776  0.82089452  0.30891917     0.03700
C2280       C  0.66797609  0.83673935  0.31472487    -0.10400
H2281       H  0.73184682  0.90907733  0.29741164     0.09300
H2282       H  0.72619694  0.82511198  0.29505993     0.06800
H2283       H  0.64300933  0.82470651  0.32329792     0.06600
C2284       C  0.64454683  0.82525527  0.05885819     0.03700
C2285       C  0.67653458  0.84243960  0.06357939    -0.12500
C2286       C  0.68976046  0.82583086  0.06022161     0.01200
C2287       C  0.67075535  0.79181657  0.05188840    -0.11000
C2288       C  0.63868234  0.77417364  0.04726219     0.03700
C2289       C  0.62583628  0.79113748  0.05052828    -0.10400
H2290       H  0.69095252  0.86872773  0.07051193     0.09300
H2291       H  0.68092358  0.77915059  0.04987493     0.06800
H2292       H  0.60106150  0.77782794  0.04748321     0.06600
O2293       O  0.57770847  0.97668983  0.33584265    -0.74800
O2294       O  0.56784212  0.97115182  0.38792086    -0.53700
C2295       C  0.57933177  0.96748607  0.35802727     0.79000
O2296       O  0.59021121  0.61930929  0.38158293    -0.59400
O2297       O  0.54610444  0.59751528  0.35849041    -0.52400
C2298       C  0.57431182  0.62089771  0.36647751     0.71000
O2299       O  0.61655338  0.58106688  0.43340320    -0.73900
O2300       O  0.59151381  0.02855671  0.44146841    -0.54500
C2301       C  0.61622521  0.56098933  0.44313635     0.77000
O2302       O  0.54084259  0.00778223  0.28645494    -0.59100
O2303       O  0.01729964  0.03458564  0.30675008    -0.52200
C2304       C  0.02798139  0.02018260  0.28293295     0.73600
Zr2305     Zr  0.55419690  0.00201662  0.33149530     2.54700
O2306       O  0.60687812  0.03308889  0.30344637    -0.79600
O2307       O  0.03385218  0.94884560  0.28948226    -0.93000
Zr2308     Zr  0.58472704  0.57987335  0.40272241     2.64700
O2309       O  0.63588709  0.60053592  0.37017386    -0.98000
O2310       O  0.60702501  0.63162992  0.44257491    -0.80100
O2311       O  0.57715778  0.02915780  0.38187541    -0.83400
O2312       O  0.56116602  0.55194305  0.35285043    -2.18100
O2313       O  0.93784577  0.95651980  0.34848993    -0.66800
O2314       O  0.95923903  0.00760653  0.34472415    -0.51400
C2315       C  0.93791223  0.97678443  0.33941119     0.72000
O2316       O  0.00108592  0.51986411  0.49636731    -0.59700
O2317       O  0.52718809  0.99788514  0.47807022    -0.51700
C2318       C  0.01531858  0.00728565  0.50032141     0.73800
O2319       O  0.97559276  0.56330093  0.44952372    -0.71100
O2320       O  0.98706368  0.57085478  0.39805530    -0.49800
C2321       C  0.97530197  0.57405255  0.42789341     0.75200
O2322       O  0.96199451  0.92057843  0.40653602    -0.66400
O2323       O  0.00770616  0.94080668  0.42542899    -0.53600
C2324       C  0.97854417  0.91850455  0.42017214     0.73500
Zr2325     Zr  0.96812267  0.95853181  0.38209317     2.77500
O2326       O  0.91719039  0.94003139  0.41467611    -0.97200
O2327       O  0.94546616  0.90646368  0.34264945    -0.78000
Zr2328     Zr  0.99855988  0.53702218  0.45276235     2.70100
O2329       O  0.94801337  0.01187966  0.48435561    -0.79300
O2330       O  0.52089174  0.58795860  0.49738313    -0.98300
Zr2331     Zr  0.54079125  0.99616069  0.41982222     2.21500
Zr2332     Zr  0.01065791  0.54259191  0.36463498     2.11100
O2333       O  0.97533750  0.00937031  0.40463843    -2.47000
O2334       O  0.99209784  0.98638279  0.43146469    -0.79000
O2335       O  0.00204084  0.99009689  0.34288968    -0.71200
O2336       O  0.55089475  0.54890566  0.44267529    -2.32200
O2337       O  0.01831884  0.96695610  0.36933138    -2.28400
O2338       O  0.53453031  0.57133722  0.41551902    -0.73000
H2339       H  0.57372358  0.56485914  0.33675932     0.79000
H2340       H  0.56067575  0.55930529  0.46273246     0.80100
H2341       H  0.95516112  0.00623461  0.40826612     0.82300
H2342       H  0.01546597  0.94626201  0.36148834     0.79900
H2343       H  0.58973561  0.62791743  0.46038559     0.43000
H2344       H  0.50792557  0.58054296  0.51752463     0.41900
H2345       H  0.95219134  0.02136161  0.50754543     0.41600
H2346       H  0.90422398  0.91609527  0.40687321     0.39500
H2347       H  0.95357181  0.91209041  0.32114078     0.42700
H2348       H  0.03139994  0.95235528  0.27031326     0.37500
H2349       H  0.60831878  0.05078299  0.29915326     0.43600
H2350       H  0.63644842  0.58130255  0.35969640     0.40000
H2351       H  0.92148239  0.94396976  0.43684355     0.44900
H2352       H  0.51781233  0.94528436  0.28298269     0.43600
H2353       H  0.63405867  0.60598125  0.35210659     0.43800
H2354       H  0.94093465  0.52648576  0.00711962     0.44100
O2355       O  0.53026402  0.92799558  0.08414895    -0.74800
O2356       O  0.54620954  0.94797305  0.13508422    -0.53700
C2357       C  0.54387393  0.93060111  0.10582709     0.79000
O2358       O  0.55412864  0.57361774  0.09454473    -0.59400
O2359       O  0.50227326  0.55178052  0.09282817    -0.52400
C2360       C  0.53218659  0.57250646  0.08690931     0.71000
O2361       O  0.60302536  0.55820875  0.14560203    -0.73900
O2362       O  0.58407081  0.01633870  0.17057982    -0.54500
C2363       C  0.60717218  0.54501040  0.16107775     0.77000
O2364       O  0.48639478  0.95324648  0.03645158    -0.59100
O2365       O  0.96600004  0.48350643  0.05601240    -0.52200
C2366       C  0.97593055  0.96673888  0.03227946     0.73600
Zr2367     Zr  0.50618671  0.95318135  0.08028940     2.54700
O2368       O  0.54997801  0.96570946  0.03736013    -0.79600
O2369       O  0.97836555  0.89900966  0.05183346    -0.93000
Zr2370     Zr  0.55940514  0.54684615  0.12406777     2.64700
O2371       O  0.59717020  0.54908315  0.07650506    -0.98000
O2372       O  0.59444070  0.60545736  0.14364026    -0.80100
O2373       O  0.54693428  0.99399349  0.11536657    -0.83400
O2374       O  0.51899777  0.50622715  0.08899266    -2.18100
O2375       O  0.90100296  0.92753077  0.13259818    -0.66800
O2376       O  0.91851763  0.96788937  0.10891718    -0.51400
C2377       C  0.89675440  0.94077932  0.11730100     0.72000
O2378       O  0.00930644  0.52852597  0.24553543    -0.59700
O2379       O  0.53313682  0.00042509  0.22540082    -0.51700
C2380       C  0.02435894  0.01678959  0.24922866     0.73800
O2381       O  0.96795558  0.55584354  0.19563742    -0.71100
O2382       O  0.95153630  0.53462437  0.14475952    -0.49800
C2383       C  0.95376710  0.55224547  0.17379900     0.75200
O2384       O  0.94857880  0.91409079  0.18807299    -0.66400
O2385       O  0.00023282  0.93562321  0.19011695    -0.53600
C2386       C  0.97030279  0.91538275  0.19640865     0.73500
Zr2387     Zr  0.94384634  0.93870007  0.15526677     2.77500
O2388       O  0.90153316  0.92912334  0.19959217    -0.97200
O2389       O  0.91499637  0.88083072  0.13012378    -0.78000
Zr2390     Zr  0.99315257  0.53223397  0.20114011     2.70100
O2391       O  0.95370620  0.02328984  0.24636844    -0.79300
O2392       O  0.53373827  0.58992846  0.22639491    -0.98300
Zr2393     Zr  0.52731239  0.98094948  0.16735986     2.21500
Zr2394     Zr  0.97267074  0.50387778  0.11373553     2.11100
O2395       O  0.95490908  0.99063943  0.16516173    -2.47000
O2396       O  0.98272402  0.97932585  0.19186312    -0.79000
O2397       O  0.96257797  0.95214519  0.10366828    -0.71200
O2398       O  0.54184037  0.53558062  0.17669035    -2.32200
O2399       O  0.99027690  0.94095429  0.13050879    -2.28400
O2400       O  0.51387407  0.54642950  0.14979135    -0.73000
H2401       H  0.52547237  0.51188213  0.06824609     0.79000
H2402       H  0.55822610  0.55126332  0.19128613     0.80100
H2403       H  0.93561906  0.98933783  0.17360932     0.82300
H2404       H  0.98614488  0.92011952  0.12779966     0.79900
H2405       H  0.59505280  0.60873956  0.16701993     0.43000
H2406       H  0.53191297  0.60251974  0.21649526     0.41900
H2407       H  0.94609130  0.00268289  0.25076132     0.41600
H2408       H  0.88357096  0.90639091  0.19205231     0.39500
H2409       H  0.91458562  0.87929397  0.10723012     0.42700
H2410       H  0.98123721  0.89896505  0.02860409     0.37500
H2411       H  0.55434620  0.98395950  0.03083752     0.43600
H2412       H  0.58417082  0.53456158  0.05792277     0.40000
H2413       H  0.90839722  0.92859777  0.21770666     0.44900
H2414       H  0.48460191  0.89635606  0.02854184     0.43600
H2415       H  0.60891080  0.57119154  0.07308555     0.43800
H2416       H  0.04119774  0.60024702  0.20857057     0.44100
C2417       C  0.57569511  0.63723352  0.04707792     0.20900
C2418       C  0.60374348  0.66213688  0.03385836    -0.39000
C2419       C  0.60428803  0.68887249  0.03563618     0.19900
C2420       C  0.57873619  0.69066076  0.04929137     0.22500
C2421       C  0.55034556  0.66539385  0.06208757    -0.39500
C2422       C  0.54983988  0.63860962  0.06050932     0.21300
N2423       N  0.57143842  0.61205442  0.05296381    -0.32800
C2424       C  0.54280058  0.59729048  0.07039736    -0.10300
C2425       C  0.52821123  0.61268993  0.07510961    -0.29100
N2426       N  0.58706068  0.72065709  0.05263920    -0.45700
C2427       C  0.61829931  0.73824964  0.04165010    -0.05000
C2428       C  0.62953206  0.71883831  0.03013896    -0.22400
H2429       H  0.64090593  0.71150263  0.62676725     0.19400
H2430       H  0.53099004  0.66747843  0.07447447     0.18200
H2431       H  0.50639562  0.60766213  0.09003686     0.14500
H2432       H  0.66998218  0.76981398  0.60553735     0.14400
H2433       H  0.58798366  0.60660094  0.04745937     0.32500
H2434       H  0.57309792  0.72928058  0.06459758     0.35300
C2435       C  0.76333935  0.85581146  0.08434069     0.20900
C2436       C  0.78326404  0.85605656  0.09904078    -0.39000
C2437       C  0.81442038  0.88407791  0.10061460     0.19900
C2438       C  0.82510479  0.90975191  0.08814048     0.22500
C2439       C  0.80511893  0.90951074  0.07347466    -0.39500
C2440       C  0.77377146  0.88164771  0.07232559     0.21300
N2441       N  0.73245087  0.83251739  0.08090726    -0.32800
C2442       C  0.72289420  0.84369173  0.06698385    -0.10300
C2443       C  0.74808960  0.87429259  0.06122179    -0.29100
N2444       N  0.85576847  0.93352851  0.09271464    -0.45700
C2445       C  0.86454562  0.92290084  0.10835748    -0.05000
C2446       C  0.83935274  0.89219909  0.11375042    -0.22400
H2447       H  0.77500479  0.83608327  0.10891136     0.19400
H2448       H  0.81323669  0.92971713  0.06410771     0.18200
H2449       H  0.74763043  0.88925088  0.05059951     0.14500
H2450       H  0.83938023  0.87765424  0.12546555     0.14400
H2451       H  0.74257938  0.82004595  0.52842378     0.32500
H2452       H  0.86983314  0.95552673  0.08557214     0.35300
C2453       C  0.59869432  0.85383571  0.06215890     0.20900
C2454       C  0.57513507  0.85347636  0.05403094    -0.39000
C2455       C  0.57157820  0.87844294  0.07310357     0.19900
C2456       C  0.58976339  0.90146010  0.09858223     0.22500
C2457       C  0.61345541  0.90203226  0.10640555    -0.39500
C2458       C  0.61735362  0.87752602  0.08706768     0.21300
N2459       N  0.60629438  0.83244717  0.04847176    -0.32800
C2460       C  0.63016288  0.84283661  0.06461562    -0.10300
C2461       C  0.63781439  0.87105520  0.08871057    -0.29100
N2462       N  0.58172532  0.92229804  0.11335016    -0.45700
C2463       C  0.55861460  0.91306813  0.09696747    -0.05000
C2464       C  0.55154510  0.88572141  0.07158403    -0.22400
H2465       H  0.56066168  0.83513400  0.03439396     0.19400
H2466       H  0.62778861  0.92024268  0.12618505     0.18200
H2467       H  0.65516648  0.88434974  0.10596608     0.14500
H2468       H  0.53410216  0.87289398  0.05453849     0.14400
H2469       H  0.59578610  0.81198823  0.02943100     0.32500
H2470       H  0.59179731  0.94204407  0.13311826     0.35300
C2471       C  0.65411793  0.74924059  0.33176062     0.20900
C2472       C  0.65634051  0.73036608  0.34440521    -0.39000
C2473       C  0.62821495  0.70017036  0.34766336     0.19900
C2474       C  0.59991363  0.68918251  0.33864430     0.22500
C2475       C  0.59761571  0.70826095  0.32607698    -0.39500
C2476       C  0.62587738  0.73888681  0.32321255     0.21300
N2477       N  0.67752532  0.77913903  0.32716998    -0.32800
C2478       C  0.66435888  0.78841505  0.31582873    -0.10300
C2479       C  0.63201725  0.76390709  0.31310085    -0.29100
N2480       N  0.57668856  0.65937879  0.34421269    -0.45700
C2481       C  0.59047416  0.65173533  0.35712728    -0.05000
C2482       C  0.62253830  0.67663833  0.35963266    -0.22400
H2483       H  0.67837533  0.73875498  0.35151186     0.19400
H2484       H  0.57548487  0.70005508  0.31939321     0.18200
H2485       H  0.61528659  0.76436548  0.30496571     0.14500
H2486       H  0.63953155  0.67731370  0.36876169     0.14400
H2487       H  0.70087426  0.79276703  0.33253649     0.32500
H2488       H  0.55302144  0.64522375  0.33964286     0.35300
C2489       C  0.81750669  0.92727109  0.29693548     0.20900
C2490       C  0.84460508  0.95701334  0.30990393    -0.39000
C2491       C  0.87015429  0.95628957  0.30977731     0.19900
C2492       C  0.86879536  0.92803223  0.29755060     0.22500
C2493       C  0.84204261  0.89852471  0.28384589    -0.39500
C2494       C  0.81644017  0.89922664  0.28422504     0.21300
N2495       N  0.78854551  0.92044785  0.29957792    -0.32800
C2496       C  0.76861171  0.88770644  0.28908684    -0.10300
C2497       C  0.78554656  0.87386319  0.27850401    -0.29100
N2498       N  0.89377982  0.93234800  0.30503209    -0.45700
C2499       C  0.91115774  0.96352028  0.32214755    -0.05000
C2500       C  0.89754864  0.97945789  0.32506179    -0.22400
H2501       H  0.84487544  0.97854578  0.32154536     0.19400
H2502       H  0.84032753  0.87610560  0.27593712     0.18200
H2503       H  0.77628069  0.84838108  0.27052867     0.14500
H2504       H  0.90503247  0.00366786  0.33918359     0.14400
H2505       H  0.78240675  0.93680051  0.31101484     0.32500
H2506       H  0.89774419  0.91462788  0.30052871     0.35300
C2507       C  0.61226833  0.92557375  0.35272876     0.20900
C2508       C  0.61803893  0.90826865  0.36352577    -0.39000
C2509       C  0.63944034  0.90158357  0.34305282     0.19900
C2510       C  0.65433314  0.91167669  0.31416022     0.22500
C2511       C  0.64822693  0.92869600  0.30311168    -0.39500
C2512       C  0.62649190  0.93513881  0.32351884     0.21300
N2513       N  0.59347295  0.93552073  0.36827915    -0.32800
C2514       C  0.59551975  0.95145624  0.34886819    -0.10300
C2515       C  0.61569650  0.95153510  0.32052998    -0.29100
N2516       N  0.67363892  0.90212079  0.29921012    -0.45700
C2517       C  0.67038431  0.88529893  0.31848501    -0.05000
C2518       C  0.64938254  0.88458925  0.34608838    -0.22400
H2519       H  0.60667321  0.90056259  0.38622841     0.19400
H2520       H  0.65956188  0.93637259  0.28039536     0.18200
H2521       H  0.62222454  0.96280600  0.30091665     0.14500
H2522       H  0.64214028  0.87289824  0.36557509     0.14400
H2523       H  0.58027334  0.93193310  0.39091240     0.32500
H2524       H  0.68733723  0.90584376  0.27682968     0.35300
C2525       C  0.88711843  0.61276766  0.19093468     0.20900
C2526       C  0.88898324  0.58726853  0.17030213    -0.39000
C2527       C  0.90931801  0.58338980  0.17856609     0.19900
C2528       C  0.92645033  0.60324621  0.20537300     0.22500
C2529       C  0.92482268  0.62903301  0.22583879    -0.39500
C2530       C  0.90452976  0.63301790  0.21749677     0.21300
N2531       N  0.86917813  0.62118089  0.18852621    -0.32800
C2532       C  0.87522935  0.64707593  0.21368324    -0.10300
C2533       C  0.89736392  0.65535314  0.23218096    -0.29100
N2534       N  0.94415250  0.59442765  0.20776294    -0.45700
C2535       C  0.93839915  0.56901970  0.18205136    -0.05000
C2536       C  0.91677221  0.56144623  0.16337691    -0.22400
H2537       H  0.87558233  0.57159934  0.14936591     0.19400
H2538       H  0.93833664  0.64480833  0.24667401     0.18200
H2539       H  0.90653904  0.67471488  0.25374388     0.14500
H2540       H  0.90790061  0.54254767  0.14143044     0.14400
H2541       H  0.85405414  0.61018232  0.17059885     0.32500
H2542       H  0.95962974  0.60539484  0.22531091     0.35300
C2543       C  0.92344780  0.79794580  0.23506881     0.20900
C2544       C  0.95190960  0.82334792  0.22264656    -0.39000
C2545       C  0.95231053  0.84998532  0.22408395     0.19900
C2546       C  0.92620116  0.85102944  0.23680123     0.22500
C2547       C  0.89799082  0.82591553  0.24964883    -0.39500
C2548       C  0.89762756  0.79936696  0.24822729     0.21300
N2549       N  0.91537579  0.76808220  0.23161502    -0.32800
C2550       C  0.88405002  0.75015888  0.24205984    -0.10300
C2551       C  0.87243347  0.76921497  0.25338304    -0.29100
N2552       N  0.93051606  0.87610191  0.23057084    -0.45700
C2553       C  0.95947418  0.89109270  0.21370848    -0.05000
C2554       C  0.97416238  0.87598308  0.20973147    -0.22400
H2555       H  0.97145065  0.82147452  0.21062106     0.19400
H2556       H  0.87705778  0.82594918  0.25783567     0.18200
H2557       H  0.84817961  0.76144139  0.26138932     0.14500
H2558       H  0.99618556  0.88114361  0.19523465     0.14400
H2559       H  0.92955304  0.75971380  0.21965678     0.32500
H2560       H  0.91382462  0.88125343  0.23534837     0.35300
C2561       C  0.68855996  0.60038465  0.17637832     0.20900
C2562       C  0.71868022  0.62991129  0.17837135    -0.39000
C2563       C  0.74099713  0.63136476  0.19026657     0.19900
C2564       C  0.73398919  0.60533596  0.19919793     0.22500
C2565       C  0.70374347  0.57586091  0.19747643    -0.39500
C2566       C  0.68128919  0.57447403  0.18582454     0.21300
N2567       N  0.66323928  0.59295430  0.16601478    -0.32800
C2568       C  0.63953413  0.56216326  0.16909243    -0.10300
C2569       C  0.64984802  0.54981574  0.18146311    -0.29100
N2570       N  0.75941558  0.61292508  0.20957912    -0.45700
C2571       C  0.78268939  0.64416334  0.20759030    -0.05000
C2572       C  0.77201827  0.65642023  0.19558622    -0.22400
H2573       H  0.72428227  0.65029550  0.17131581     0.19400
H2574       H  0.69809178  0.55557284  0.20476608     0.18200
H2575       H  0.63619450  0.52607221  0.18658887     0.14500
H2576       H  0.78522429  0.68031978  0.19100577     0.14400
H2577       H  0.66206262  0.60808505  0.15775173     0.32500
H2578       H  0.76060007  0.59793037  0.21806128     0.35300
C2579       C  0.92737325  0.60402394  0.46084576     0.18300
C2580       C  0.85066968  0.55408352  0.98154980    -0.39000
C2581       C  0.89883891  0.62738717  0.47449781     0.19900
C2582       C  0.91892894  0.64622844  0.45196906     0.22500
C2583       C  0.94354837  0.64420222  0.43249179    -0.39500
C2584       C  0.94687974  0.62232690  0.43775587     0.21300
N2585       N  0.93566034  0.58519326  0.46115156    -0.32800
C2586       C  0.96021520  0.59121750  0.43767177    -0.10300
C2587       C  0.96788341  0.61421983  0.42257264    -0.29100
N2588       N  0.91125494  0.66558801  0.45195512    -0.45700
C2589       C  0.88591470  0.65896864  0.47448368    -0.05000
C2590       C  0.82340157  0.58077272  0.98801950    -0.22400
H2591       H  0.83899576  0.54431694  0.00309879     0.19400
H2592       H  0.95900752  0.65864084  0.41458472     0.18200
H2593       H  0.98618048  0.62349557  0.40291333     0.14500
H2594       H  0.80738008  0.57463129  0.00988200     0.14400
H2595       H  0.87517845  0.51962316  0.97990361     0.32500
H2596       H  0.92234201  0.68193730  0.43710051     0.35300
C2597       C  0.89886107  0.79340856  0.46128561     0.20900
C2598       C  0.89631271  0.81160284  0.44791425    -0.39000
C2599       C  0.92442718  0.84138351  0.44345917     0.19900
C2600       C  0.95300605  0.85253368  0.45194330     0.22500
C2601       C  0.95555102  0.83428060  0.46552727    -0.39500
C2602       C  0.92729404  0.80412213  0.46968567     0.21300
N2603       N  0.87576164  0.76355948  0.46608576    -0.32800
C2604       C  0.88930461  0.75470735  0.47752227    -0.10300
C2605       C  0.92155857  0.77953585  0.48020657    -0.29100
N2606       N  0.97630066  0.88148883  0.44455165    -0.45700
C2607       C  0.96226324  0.88849556  0.43114104    -0.05000
C2608       C  0.92995547  0.86404970  0.43015092    -0.22400
H2609       H  0.87412347  0.80286968  0.44085357     0.19400
H2610       H  0.97791616  0.84259296  0.47171376     0.18200
H2611       H  0.93863708  0.77938859  0.48806435     0.14500
H2612       H  0.91276777  0.86304550  0.42098147     0.14400
H2613       H  0.85251573  0.74958724  0.46027141     0.32500
H2614       H  0.00017749  0.89551290  0.44830466     0.35300
C2615       C  0.73769093  0.61208147  0.48504320     0.20900
C2616       C  0.71102691  0.58212469  0.47147733    -0.39000
C2617       C  0.68525900  0.58237703  0.47111025     0.19900
C2618       C  0.68630444  0.61046487  0.48306800     0.22500
C2619       C  0.71254656  0.64006005  0.49720875    -0.39500
C2620       C  0.73805848  0.63971607  0.49776286     0.21300
N2621       N  0.76665154  0.61945879  0.48408068    -0.32800
C2622       C  0.78565624  0.65211365  0.49599048    -0.10300
C2623       C  0.76819221  0.66526049  0.50550445    -0.29100
N2624       N  0.66107118  0.60574888  0.47584079    -0.45700
C2625       C  0.64360040  0.57441613  0.45933414    -0.05000
C2626       C  0.65754484  0.55874811  0.45634115    -0.22400
H2627       H  0.71105587  0.56072985  0.46029677     0.19400
H2628       H  0.71380315  0.66223503  0.50527859     0.18200
H2629       H  0.77664724  0.69048920  0.51450792     0.14500
H2630       H  0.64986858  0.53433646  0.44280333     0.14400
H2631       H  0.77346553  0.60361401  0.47327065     0.32500
H2632       H  0.65678906  0.62324394  0.48041470     0.35300
C2633       C  0.86972750  0.67497367  0.48181238     0.03700
C2634       C  0.83662000  0.65737469  0.48894310    -0.12500
C2635       C  0.82084716  0.67162095  0.49296349     0.01200
C2636       C  0.83884857  0.70413270  0.49093054    -0.11000
C2637       C  0.87182815  0.72199204  0.48364669     0.03700
C2638       C  0.88718924  0.70733510  0.47942916    -0.10400
H2639       H  0.82314373  0.63228065  0.49015421     0.09300
H2640       H  0.82711049  0.71540855  0.49379030     0.06800
H2641       H  0.91260549  0.72075657  0.47333835     0.06600
C2642       C  0.83507146  0.63762209  0.72001533     0.03700
C2643       C  0.85183087  0.66847524  0.71384676    -0.12500
C2644       C  0.83623539  0.68267398  0.71740521     0.01200
C2645       C  0.80373802  0.66601666  0.72756361    -0.11000
C2646       C  0.78640792  0.63494789  0.73338286     0.03700
C2647       C  0.80237750  0.62102750  0.72994207    -0.10400
H2648       H  0.87691695  0.68125679  0.70577123     0.09300
H2649       H  0.79178805  0.67694848  0.72972209     0.06800
H2650       H  0.78927237  0.59696044  0.73407309     0.06600
C2651       C  0.62295668  0.80331147  0.80317951     0.03700
C2652       C  0.65594579  0.82080879  0.79549431    -0.12500
C2653       C  0.67187117  0.80690431  0.79225936     0.01200
C2654       C  0.65406255  0.77471674  0.79525112    -0.11000
C2655       C  0.62113085  0.75699263  0.80300513     0.03700
C2656       C  0.60566970  0.77142228  0.80684779    -0.10400
H2657       H  0.66921846  0.84566280  0.79353670     0.09300
H2658       H  0.66595256  0.76369194  0.79284037     0.06800
H2659       H  0.58034712  0.75829393  0.81371458     0.06600
C2660       C  0.65279331  0.83740147  0.56491225     0.03700
C2661       C  0.68524897  0.85338177  0.55449318    -0.12500
C2662       C  0.70131287  0.84028793  0.55373394     0.01200
C2663       C  0.68425480  0.81059549  0.56277590    -0.11000
C2664       C  0.65163194  0.79415557  0.57266592     0.03700
C2665       C  0.63612916  0.80779411  0.57373778    -0.10400
H2666       H  0.69814231  0.87656036  0.54829099     0.09300
H2667       H  0.69642207  0.80054746  0.56287986     0.06800
H2668       H  0.61117738  0.79587102  0.58237252     0.06600
O2669       O  0.51715589  0.91451322  0.83239499    -0.74800
O2670       O  0.50768125  0.90880272  0.88432546    -0.53700
C2671       C  0.51927870  0.90555017  0.85445427     0.79000
O2672       O  0.53324580  0.55567191  0.87341585    -0.59400
O2673       O  0.48803257  0.53530863  0.85334749    -0.52400
C2674       C  0.51696524  0.55774622  0.85939820     0.71000
O2675       O  0.55714487  0.51630947  0.92753710    -0.73900
O2676       O  0.53524180  0.96816134  0.93502602    -0.54500
C2677       C  0.55594032  0.49572790  0.93742897     0.77000
O2678       O  0.48510208  0.95016050  0.78320040    -0.59100
O2679       O  0.96092764  0.97858522  0.80500228    -0.52200
C2680       C  0.97376051  0.96643789  0.78121116     0.73600
Zr2681     Zr  0.48983649  0.93589335  0.82770591     2.54700
O2682       O  0.53720166  0.95405247  0.78915452    -0.79600
O2683       O  0.96915649  0.88822748  0.78442651    -0.93000
Zr2684     Zr  0.52622466  0.51661269  0.89668235     2.64700
O2685       O  0.57679773  0.53472309  0.86342206    -0.98000
O2686       O  0.54770346  0.56869232  0.93615614    -0.80100
O2687       O  0.51709747  0.96540129  0.87548675    -0.83400
O2688       O  0.50083010  0.48827748  0.84807228    -2.18100
O2689       O  0.87781595  0.90009158  0.84933535    -0.66800
O2690       O  0.90008139  0.95108943  0.84468234    -0.51400
C2691       C  0.87804598  0.92043562  0.84027899     0.72000
O2692       O  0.95470243  0.47291094  0.99583014    -0.59700
O2693       O  0.47751136  0.94512026  0.97590625    -0.51700
C2694       C  0.96980445  0.96128086  0.99901749     0.73800
O2695       O  0.92016300  0.50686494  0.94739147    -0.71100
O2696       O  0.92585377  0.50807829  0.89444556    -0.49800
C2697       C  0.91685845  0.51436238  0.92484887     0.75200
O2698       O  0.90013473  0.86176701  0.90558995    -0.66400
O2699       O  0.94525496  0.88132558  0.92513648    -0.53600
C2700       C  0.91617650  0.85925132  0.91941630     0.73500
Zr2701     Zr  0.90761019  0.90112476  0.88240256     2.77500
O2702       O  0.85802497  0.88640051  0.91671953    -0.97200
O2703       O  0.87982153  0.84771623  0.84567970    -0.78000
Zr2704     Zr  0.94271768  0.48008584  0.95092755     2.70100
O2705       O  0.89188261  0.95261927  0.98036911    -0.79300
O2706       O  0.46465272  0.53158353  0.99008711    -0.98300
Zr2707     Zr  0.48300126  0.93602339  0.91687453     2.21500
Zr2708     Zr  0.95131271  0.48148290  0.86231120     2.11100
O2709       O  0.91759486  0.95323652  0.90413916    -2.47000
O2710       O  0.93303384  0.92876691  0.93107375    -0.79000
O2711       O  0.94123997  0.93054251  0.84134473    -0.71200
O2712       O  0.49242942  0.48729081  0.93742728    -2.32200
O2713       O  0.95635298  0.90637363  0.86741636    -2.28400
O2714       O  0.47694624  0.51018277  0.91034139    -0.73000
H2715       H  0.51363937  0.50069824  0.83159445     0.79000
H2716       H  0.50335763  0.49854720  0.95677806     0.80100
H2717       H  0.89797758  0.95133677  0.90853384     0.82300
H2718       H  0.95228738  0.88509792  0.85986257     0.79900
H2719       H  0.55855887  0.56863959  0.95068481     0.43000
H2720       H  0.45163172  0.52622199  0.01091012     0.41900
H2721       H  0.89136040  0.93760914  0.98891783     0.41600
H2722       H  0.84130212  0.86876886  0.90206104     0.39500
H2723       H  0.89684283  0.84557893  0.83198730     0.42700
H2724       H  0.94659838  0.87959897  0.78577518     0.37500
H2725       H  0.55096512  0.97789750  0.79741868     0.43600
H2726       H  0.58103937  0.51893589  0.86215947     0.40000
H2727       H  0.85649010  0.87549619  0.93179480     0.44900
H2728       H  0.44621434  0.88178501  0.78261369     0.43600
H2729       H  0.57205309  0.52987615  0.84117615     0.43800
H2730       H  0.03339452  0.58591986  0.50658507     0.44100
O2731       O  0.54736325  0.94719053  0.58250358    -0.74800
O2732       O  0.53483312  0.93835263  0.63348605    -0.53700
C2733       C  0.54779309  0.93645245  0.60408188     0.79000
O2734       O  0.55572860  0.58872860  0.63916430    -0.59400
O2735       O  0.51361384  0.56766975  0.61299717    -0.52400
C2736       C  0.54054966  0.59123306  0.62407809     0.71000
O2737       O  0.57934013  0.54628302  0.68754952    -0.73900
O2738       O  0.55733461  0.99449757  0.68852399    -0.54500
C2739       C  0.57953773  0.52519071  0.69448699     0.77000
O2740       O  0.51936490  0.98925133  0.53723933    -0.59100
O2741       O  0.99281204  0.51059510  0.55594679    -0.52200
C2742       C  0.01092870  0.00245931  0.53319872     0.73600
Zr2743     Zr  0.52298394  0.97256593  0.58018699     2.54700
O2744       O  0.57716047  0.00424183  0.55545947    -0.79600
O2745       O  0.01033675  0.92639199  0.53533912    -0.93000
Zr2746     Zr  0.54926422  0.54664330  0.65636913     2.64700
O2747       O  0.60209022  0.57010365  0.62702442    -0.98000
O2748       O  0.56675579  0.59458695  0.70120038    -0.80100
O2749       O  0.54370749  0.99791244  0.63158751    -0.83400
O2750       O  0.53004185  0.52211483  0.60444841    -2.18100
O2751       O  0.90893648  0.92501349  0.59049012    -0.66800
O2752       O  0.93028559  0.97653854  0.58835305    -0.51400
C2753       C  0.90918336  0.94566009  0.58202108     0.72000
O2754       O  0.96474817  0.48207519  0.74379070    -0.59700
O2755       O  0.49285236  0.95940663  0.72356062    -0.51700
C2756       C  0.97692863  0.97013838  0.74814827     0.73800
O2757       O  0.94023090  0.52724405  0.69788844    -0.71100
O2758       O  0.95174049  0.53470896  0.64636640    -0.49800
C2759       C  0.94029377  0.53825484  0.67625145     0.75200
O2760       O  0.92868629  0.88536697  0.64768934    -0.66400
O2761       O  0.97232844  0.90629243  0.67111032    -0.53600
C2762       C  0.94412543  0.88339195  0.66300085     0.73500
Zr2763     Zr  0.93780766  0.92494175  0.62349873     2.77500
O2764       O  0.88283330  0.89746591  0.64731611    -0.97200
O2765       O  0.92618339  0.87856440  0.57775469    -0.78000
Zr2766     Zr  0.96033865  0.49795431  0.70043404     2.70100
O2767       O  0.90533977  0.96570908  0.72109739    -0.79300
O2768       O  0.47819900  0.54552284  0.74734736    -0.98300
Zr2769     Zr  0.50678010  0.96168938  0.66650749     2.21500
Zr2770     Zr  0.97790595  0.50924000  0.61340217     2.11100
O2771       O  0.94165235  0.97386263  0.64849739    -2.47000
O2772       O  0.95613856  0.94942299  0.67584464    -0.79000
O2773       O  0.97423598  0.96025817  0.58787170    -0.71200
O2774       O  0.51312310  0.51170885  0.69238026    -2.32200
O2775       O  0.98900416  0.93668002  0.61539038    -2.28400
O2776       O  0.49823742  0.53569949  0.66560249    -0.73000
H2777       H  0.54393690  0.53690221  0.59016773     0.79000
H2778       H  0.52146353  0.52083834  0.71314582     0.80100
H2779       H  0.92130404  0.96993448  0.65035899     0.82300
H2780       H  0.98727117  0.91655474  0.60675211     0.79900
H2781       H  0.55186330  0.58629228  0.72028135     0.43000
H2782       H  0.49642879  0.54920893  0.75397034     0.41900
H2783       H  0.90447258  0.95435376  0.73516635     0.41600
H2784       H  0.88387526  0.89922128  0.67007683     0.39500
H2785       H  0.94150008  0.87405823  0.57728017     0.42700
H2786       H  0.99084906  0.92077251  0.52938248     0.37500
H2787       H  0.57586174  0.99418664  0.53183313     0.43600
H2788       H  0.61106740  0.56085138  0.63216766     0.40000
H2789       H  0.87665557  0.91189875  0.64931144     0.44900
H2790       H  0.49280337  0.92530190  0.52323426     0.43600
H2791       H  0.59834568  0.55968864  0.60378920     0.43800
H2792       H  0.99551262  0.55386287  0.75014569     0.44100
C2793       C  0.59180041  0.67352309  0.61648807     0.20900
C2794       C  0.62055843  0.70429964  0.61707316    -0.39000
C2795       C  0.62157608  0.72470882  0.60331714     0.19900
C2796       C  0.59573263  0.71540280  0.59051222     0.22500
C2797       C  0.56692862  0.68456204  0.58989608    -0.39500
C2798       C  0.56606354  0.66391121  0.60319443     0.21300
N2799       N  0.58553045  0.64913423  0.62631707    -0.32800
C2800       C  0.55572535  0.62359331  0.61891677    -0.10300
C2801       C  0.54268670  0.63190218  0.60459288    -0.29100
N2802       N  0.60302425  0.73900543  0.57832121    -0.45700
C2803       C  0.63386364  0.76337103  0.58300324    -0.05000
C2804       C  0.64621309  0.75529805  0.59858662    -0.22400
H2805       H  0.62450476  0.66182635  0.02513960     0.19400
H2806       H  0.54695308  0.67694504  0.57914904     0.18200
H2807       H  0.51963638  0.61639213  0.59560368     0.14500
H2808       H  0.65358439  0.72617746  0.02146761     0.14400
H2809       H  0.60100682  0.64956066  0.63650427     0.32500
H2810       H  0.58814506  0.73818163  0.56673193     0.35300
C2811       C  0.78285057  0.86926096  0.53824797     0.20900
C2812       C  0.80770685  0.86642599  0.53452470    -0.39000
C2813       C  0.83665783  0.89534575  0.54428331     0.19900
C2814       C  0.84079513  0.92504784  0.55651884     0.22500
C2815       C  0.81591717  0.92789457  0.56000693    -0.39500
C2816       C  0.78681203  0.89885421  0.55046786     0.21300
N2817       N  0.75214099  0.84480860  0.53546706    -0.32800
C2818       C  0.73620323  0.85875003  0.54642271    -0.10300
C2819       C  0.75718500  0.89254239  0.55537752    -0.29100
N2820       N  0.86899057  0.94789254  0.56866802    -0.45700
C2821       C  0.88240443  0.93234160  0.56483483    -0.05000
C2822       C  0.86319854  0.89973782  0.54917319    -0.22400
H2823       H  0.80412277  0.84306609  0.52694082     0.19400
H2824       H  0.81841620  0.95063220  0.57147995     0.18200
H2825       H  0.75130940  0.90989137  0.56708540     0.14500
H2826       H  0.86670514  0.88103569  0.54507285     0.14400
H2827       H  0.71852830  0.81085246  0.08866245     0.32500
H2828       H  0.87703202  0.97159242  0.58181609     0.35300
C2829       C  0.61856098  0.87587375  0.56204534     0.20900
C2830       C  0.61059470  0.89000240  0.54871692    -0.39000
C2831       C  0.59187293  0.90034421  0.56988670     0.19900
C2832       C  0.58200117  0.89668709  0.60166359     0.22500
C2833       C  0.58964771  0.88240225  0.61478580    -0.39500
C2834       C  0.60815541  0.87211175  0.59378322     0.21300
N2835       N  0.63637691  0.86440871  0.54746626    -0.32800
C2836       C  0.63671676  0.85298935  0.57013376    -0.10300
C2837       C  0.61943024  0.85740508  0.59923609    -0.29100
N2838       N  0.56515482  0.90886645  0.61718904    -0.45700
C2839       C  0.56408607  0.92055519  0.59541234    -0.05000
C2840       C  0.58041128  0.91562098  0.56542161    -0.22400
H2841       H  0.61855962  0.89294873  0.52390835     0.19400
H2842       H  0.58186359  0.87966376  0.63967308     0.18200
H2843       H  0.61581502  0.85088447  0.62147056     0.14500
H2844       H  0.58371433  0.92254663  0.54359145     0.14400
H2845       H  0.64718400  0.86389873  0.52357848     0.32500
H2846       H  0.55517718  0.90939894  0.64139665     0.35300
C2847       C  0.59471272  0.68590426  0.82539768     0.20900
C2848       C  0.59761542  0.66747501  0.83795146    -0.39000
C2849       C  0.57006092  0.63674031  0.84035253     0.19900
C2850       C  0.54169662  0.62499611  0.83077399     0.22500
C2851       C  0.53875486  0.64355503  0.81819111    -0.39500
C2852       C  0.56643812  0.67461422  0.81603511     0.21300
N2853       N  0.61742860  0.71616066  0.82158094    -0.32800
C2854       C  0.60378679  0.72461557  0.80973577    -0.10300
C2855       C  0.57182451  0.69927890  0.80603244    -0.29100
N2856       N  0.51894667  0.59508932  0.83608378    -0.45700
C2857       C  0.53308283  0.58809269  0.84932467    -0.05000
C2858       C  0.56493967  0.61345802  0.85225215    -0.22400
H2859       H  0.61968142  0.67658508  0.84564948     0.19400
H2860       H  0.51654724  0.63466413  0.81103626     0.18200
H2861       H  0.55485474  0.69894045  0.79730448     0.14500
H2862       H  0.58202167  0.61476450  0.86198425     0.14400
H2863       H  0.64058712  0.73044385  0.82776591     0.32500
H2864       H  0.49529138  0.58053263  0.83131958     0.35300
C2865       C  0.75486782  0.86710032  0.80034549     0.20900
C2866       C  0.78140723  0.89730158  0.81377722    -0.39000
C2867       C  0.80778409  0.89775831  0.81344491     0.19900
C2868       C  0.80744599  0.87009073  0.80087856     0.22500
C2869       C  0.78115514  0.84012833  0.78717364    -0.39500
C2870       C  0.75499360  0.83976089  0.78739377     0.21300
N2871       N  0.72571814  0.85928888  0.80139279    -0.32800
C2872       C  0.70704019  0.82664483  0.78936573    -0.10300
C2873       C  0.72485183  0.81387353  0.77980684    -0.29100
N2874       N  0.83341784  0.87554170  0.80722072    -0.45700
C2875       C  0.85060777  0.90687605  0.82393338    -0.05000
C2876       C  0.83567970  0.92180729  0.82788671    -0.22400
H2877       H  0.78093297  0.91841170  0.82522450     0.19400
H2878       H  0.78045515  0.81825299  0.77869998     0.18200
H2879       H  0.71663076  0.78871216  0.77067920     0.14500
H2880       H  0.84279676  0.94592554  0.84196064     0.14400
H2881       H  0.71858532  0.87486758  0.81221220     0.32500
H2882       H  0.83827226  0.85840388  0.80216024     0.35300
C2883       C  0.55127141  0.86237392  0.84742015     0.20900
C2884       C  0.55461620  0.84216602  0.85619863    -0.39000
C2885       C  0.57610702  0.83570306  0.83564515     0.19900
C2886       C  0.59350359  0.84883045  0.80868529     0.22500
C2887       C  0.58993608  0.86890854  0.79968223    -0.39500
C2888       C  0.56790345  0.87494086  0.82001763     0.21300
N2889       N  0.53211892  0.87184715  0.86297947    -0.32800
C2890       C  0.53612150  0.89023568  0.84520736    -0.10300
C2891       C  0.55823524  0.89275506  0.81813983    -0.29100
N2892       N  0.61269406  0.83916601  0.79352191    -0.45700
C2893       C  0.60687584  0.81933087  0.81074823    -0.05000
C2894       C  0.58424660  0.81664048  0.83715311    -0.22400
H2895       H  0.54127540  0.83202371  0.87738527     0.19400
H2896       H  0.60313954  0.87889232  0.77838854     0.18200
H2897       H  0.56632365  0.90604590  0.79985118     0.14500
H2898       H  0.57530486  0.80292613  0.85529376     0.14400
H2899       H  0.51696588  0.86585754  0.88424510     0.32500
H2900       H  0.62839580  0.84527662  0.77259133     0.35300
C2901       C  0.88528127  0.61030369  0.69487631     0.20900
C2902       C  0.90960944  0.60753340  0.67597323    -0.39000
C2903       C  0.91360208  0.58731313  0.68377131     0.19900
C2904       C  0.89502174  0.57122314  0.70867657     0.22500
C2905       C  0.87047141  0.57384252  0.72748795    -0.39500
C2906       C  0.86628952  0.59393780  0.71949452     0.21300
N2907       N  0.87654963  0.62774651  0.69195181    -0.32800
C2908       C  0.85168310  0.62245706  0.71480033    -0.10300
C2909       C  0.84446834  0.60132456  0.73237758    -0.29100
N2910       N  0.90301474  0.55258548  0.71031684    -0.45700
C2911       C  0.92642233  0.55654948  0.68587684    -0.05000
C2912       C  0.93379270  0.57817168  0.66898843    -0.22400
H2913       H  0.92406619  0.61984177  0.65631253     0.19400
H2914       H  0.85547314  0.56085765  0.74657522     0.18200
H2915       H  0.82603482  0.59283897  0.75214345     0.14500
H2916       H  0.95098330  0.58543218  0.64804479     0.14400
H2917       H  0.88662901  0.64191265  0.67499530     0.32500
H2918       H  0.89231030  0.53708384  0.72603406     0.35300
C2919       C  0.88998887  0.76267530  0.70273719     0.20900
C2920       C  0.91851446  0.79357999  0.70276425    -0.39000
C2921       C  0.91818988  0.81395147  0.69029855     0.19900
C2922       C  0.89150833  0.80423779  0.67875501     0.22500
C2923       C  0.86302002  0.77349049  0.67890139    -0.39500
C2924       C  0.86335228  0.75320602  0.69135497     0.21300
N2925       N  0.88400599  0.73871688  0.71321553    -0.32800
C2926       C  0.85322572  0.71401845  0.70872848    -0.10300
C2927       C  0.83967554  0.72217554  0.69500738    -0.29100
N2928       N  0.89736883  0.82774347  0.66768805    -0.45700
C2929       C  0.92804083  0.85262836  0.67212559    -0.05000
C2930       C  0.94181387  0.84504974  0.68634367    -0.22400
H2931       H  0.93940490  0.80114242  0.71167729     0.19400
H2932       H  0.84215101  0.76588758  0.66990202     0.18200
H2933       H  0.81575288  0.70731799  0.68835486     0.14500
H2934       H  0.96589811  0.86011992  0.69261280     0.14400
H2935       H  0.89968790  0.73939156  0.72333167     0.32500
H2936       H  0.88149023  0.82684544  0.65764163     0.35300
C2937       C  0.65037191  0.57416686  0.73305399     0.20900
C2938       C  0.67720076  0.60394623  0.74614248    -0.39000
C2939       C  0.70330530  0.60378897  0.74478243     0.19900
C2940       C  0.70272739  0.57603296  0.73156342     0.22500
C2941       C  0.67568941  0.54607708  0.71873656    -0.39500
C2942       C  0.64951091  0.54621448  0.71996990     0.21300
N2943       N  0.62444780  0.56926369  0.72739102    -0.32800
C2944       C  0.60686852  0.53805363  0.71049678    -0.10300
C2945       C  0.62145609  0.52262682  0.70575670    -0.29100
N2946       N  0.73189652  0.58331813  0.72871731    -0.45700
C2947       C  0.75136159  0.61603563  0.73952841    -0.05000
C2948       C  0.73405739  0.62945321  0.75049108    -0.22400
H2949       H  0.67839130  0.62610038  0.75467314     0.19400
H2950       H  0.67574985  0.52477006  0.70676006     0.18200
H2951       H  0.61406591  0.49855185  0.69124605     0.14500
H2952       H  0.74300841  0.65485704  0.75881417     0.14400
H2953       H  0.61995531  0.58673296  0.73284850     0.32500
H2954       H  0.73850943  0.56736988  0.71703853     0.35300
C2955       C  0.87269765  0.54878598  0.95979513     0.18300
C2956       C  0.90231182  0.60560319  0.47992307    -0.39000
C2957       C  0.84430915  0.57232132  0.97315173     0.19900
C2958       C  0.85939206  0.58497532  0.94567966     0.22500
C2959       C  0.88089494  0.57919930  0.92369659    -0.39500
C2960       C  0.88665250  0.56038217  0.93167254     0.21300
N2961       N  0.88224070  0.53150742  0.96161217    -0.32800
C2962       C  0.90185301  0.53164449  0.93407661    -0.10300
C2963       C  0.90507404  0.54932352  0.91482642    -0.29100
N2964       N  0.84952297  0.60159681  0.94314364    -0.45700
C2965       C  0.82745616  0.59897469  0.96876589    -0.05000
C2966       C  0.87730258  0.63503089  0.48890607    -0.22400
H2967       H  0.88673561  0.59102301  0.49768912     0.19400
H2968       H  0.89196878  0.58828117  0.90172079     0.18200
H2969       H  0.91888347  0.55332146  0.89147657     0.14500
H2970       H  0.85821045  0.62496636  0.50771573     0.14400
H2971       H  0.92470737  0.56856933  0.47566170     0.32500
H2972       H  0.85669200  0.61324061  0.92459685     0.35300
C2973       C  0.83606754  0.73180558  0.95617876     0.20900
C2974       C  0.83313922  0.75184369  0.94636532    -0.39000
C2975       C  0.86149844  0.78137840  0.94132690     0.19900
C2976       C  0.89060427  0.79051535  0.94598911     0.22500
C2977       C  0.89353548  0.77039761  0.95577566    -0.39500
C2978       C  0.86509927  0.74065327  0.96057177     0.21300
N2979       N  0.81277523  0.70194610  0.96113338    -0.32800
C2980       C  0.82692127  0.69131483  0.96858976    -0.10300
C2981       C  0.85966607  0.71506068  0.96860297    -0.29100
N2982       N  0.91398982  0.81962708  0.93904715    -0.45700
C2983       C  0.89955893  0.82881754  0.92963770    -0.05000
C2984       C  0.86686188  0.80558990  0.93078327    -0.22400
H2985       H  0.81048378  0.74471311  0.94240228     0.19400
H2986       H  0.91628341  0.77713917  0.95887825     0.18200
H2987       H  0.87734432  0.71378520  0.97334134     0.14500
H2988       H  0.84937640  0.80629917  0.92460532     0.14400
H2989       H  0.78891790  0.68932870  0.95822783     0.32500
H2990       H  0.93822920  0.83220214  0.94017431     0.35300
C2991       C  0.67697305  0.54592533  0.97873210     0.20900
C2992       C  0.65084082  0.51619928  0.96401697    -0.39000
C2993       C  0.62425132  0.51574034  0.96536315     0.19900
C2994       C  0.62389667  0.54289890  0.98027785     0.22500
C2995       C  0.64954016  0.57214618  0.99575221    -0.39500
C2996       C  0.67605553  0.57264703  0.99422392     0.21300
N2997       N  0.70665538  0.55440060  0.97584986    -0.32800
C2998       C  0.72480569  0.58684376  0.98910187    -0.10300
C2999       C  0.70621864  0.59875667  0.00150741    -0.29100
N3000       N  0.59856867  0.53835900  0.97350059    -0.45700
C3001       C  0.58259342  0.50815837  0.95417453    -0.05000
C3002       C  0.59735937  0.49285982  0.94913374    -0.22400
H3003       H  0.65202355  0.49579068  0.95034381     0.19400
H3004       H  0.64981576  0.59377463  0.00584930     0.18200
H3005       H  0.71404845  0.62372090  0.01186066     0.14500
H3006       H  0.59100622  0.46956300  0.93314260     0.14400
H3007       H  0.71448508  0.53965516  0.96282138     0.32500
H3008       H  0.59348405  0.55549476  0.97994995     0.35300
loop_ 
_geom_bond_atom_site_label_1 
_geom_bond_atom_site_label_2 
_geom_bond_distance 
_geom_bond_site_symmetry_2 
_ccdc_geom_bond_type 
C1            C2   1.403       .  A
C1            C6   1.403       .  A
C1          C709   1.470       .  S
C2            C3   1.404       .  A
C2            H7   1.084       .  S
C3            C4   1.407       .  A
C3          C742   1.484       .  S
C4            C5   1.405       .  A
C4            H8   1.080       .  S
C5            C6   1.404       .  A
C5          C724   1.488       .  S
C6            H9   1.083       .  S
C10          C11   1.406       .  A
C10          C15   1.405       .  A
C10         C276   1.482       .  S
C11          C12   1.406       .  A
C11          H16   1.083       .  S
C12          C13   1.407       .  A
C12         C294   1.485       .  S
C13          C14   1.405       .  A
C13          H17   1.080       .  S
C14          C15   1.404       .  A
C14         C315   1.490       .  S
C15          H18   1.081       .  S
C19          C20   1.404       .  A
C19          C24   1.402       .  A
C19         C261   1.473       .  S
C20          C21   1.406       .  A
C20          H25   1.083       .  S
C21          C22   1.410       .  A
C21         C240   1.489       .  S
C22          C23   1.404       .  A
C22          H26   1.079       .  S
C23          C24   1.400       .  A
C23         C222   1.486       .  S
C24          H27   1.083       .  S
C28          C29   1.406       .  A
C28          C33   1.404       .  A
C28         C204   1.475       .  S
C29          C30   1.401       .  A
C29          H34   1.084       .  S
C30          C31   1.401       .  A
C30         C186   1.478       .  S
C31          C32   1.406       .  A
C31          H35   1.081       .  S
C32          C33   1.405       .  A
C32         C171   1.486       .  S
C33          H36   1.083       .  S
O37         Zr49   2.461       .  S
O37          C39   1.291       .  A
O38         Zr75   2.403       .  S
O38          C39   1.283       .  A
C39         C258   1.468       .  S
O40         Zr52   2.440       .  S
O40          C42   1.288       .  A
O41       Zr1580   2.436       .  S
O41          C42   1.288       .  A
C42         C225   1.476       .  S
O43         Zr52   2.444       .  S
O43          C45   1.288       .  A
O44         Zr75   2.443       .  S
O44         C797   1.289       .  A
C45         C369   1.471       .  S
C45         O796   1.287       .  A
O46         Zr49   2.476       .  S
O46        C1552   1.296       .  A
O47        Zr828   2.432       .  S
O47          C48   1.288       .  A
C48         C124   1.486       .  S
C48        O1550   1.292       .  A
Zr49         O50   2.436       .  S
Zr49       O1555   2.440       .  S
Zr49         O55   2.381       .  S
Zr49        O808   2.372       .  S
Zr49       O1583   2.365       .  S
Zr49       O1585   2.381       .  S
O50          H93   0.990       .  S
O51       Zr1553   2.437       .  S
O51          H92   0.990       .  S
O51        H1600   0.990       .  S
Zr52         O53   2.436       .  S
Zr52         O54   2.435       .  S
Zr52         O56   2.379       .  S
Zr52         O80   2.373       .  S
Zr52         O82   2.372       .  S
Zr52        O807   2.375       .  S
O53          H94   0.990       .  S
O53          H97   0.990       .  S
O54          H87   0.990       .  S
O55         Zr75   2.386       .  S
O55        Zr804   2.372       .  S
O56        Zr801   2.373   1_545  S
O56       Zr1580   2.385       .  S
O56          H83   0.966       .  S
O57         Zr69   2.440       .  S
O57          C59   1.288       .  A
O58        Zr828   2.418       .  S
O58          C59   1.285       .  A
C59         C243   1.466       .  S
O60         Zr72   2.467       .  S
O60         C814   1.293       .  A
O61         Zr75   2.434       .  S
O61        C1566   1.288       .  A
C62         C486   1.485       .  S
C62         O812   1.292       .  A
C62        O1565   1.288       .  A
O63         Zr72   2.446       .  S
O63          C65   1.288       .  A
O64         Zr76   2.410       .  S
O64          C65   1.284       .  A
C65         C330   1.465       .  S
O66         Zr69   2.444       .  S
O66          C68   1.289       .  A
O67       Zr1579   2.423       .  S
O67          C68   1.285       .  A
C68         C351   1.474       .  S
Zr69         O70   2.434       .  S
Zr69         O71   2.435       .  S
Zr69         O77   2.373       .  S
Zr69         O78   2.365       .  S
Zr69         O81   2.370       .  S
Zr69         O79   2.369       .  S
O70          H90   0.990       .  S
O70          H95   0.990       .  S
O71          H91   0.990       .  S
Zr72        O825   2.435       .  S
Zr72       O1578   2.434       .  S
Zr72        O830   2.367   1_545  S
Zr72        O829   2.378       .  S
Zr72       O1586   2.381       .  S
Zr72       O1584   2.370       .  S
O73        Zr824   2.436       .  S
O73          H89   0.990       .  S
O74       Zr1576   2.436       .  S
O74          H88   0.990       .  S
O74        H1978   0.990       .  S
Zr75       O1571   2.432       .  S
Zr75       O1582   2.377   1_455  S
Zr75        O832   2.383       .  S
Zr75       O1585   2.395       .  S
Zr76       O1545   2.437       .  S
Zr76        O799   2.431       .  S
Zr76        O810   2.429       .  S
Zr76       O1560   2.386       .  S
Zr76        O829   2.391       .  S
Zr76        O831   2.378   1_545  S
Zr76       O1586   2.385       .  S
O77        Zr824   2.376       .  S
O77        Zr828   2.390       .  S
O77          H85   0.965       .  S
O78        Zr824   2.371       .  S
O78       Zr1579   2.377       .  S
O79       Zr1553   2.366       .  S
O79        Zr828   2.382       .  S
O80       Zr1576   2.369       .  S
O80        Zr827   2.384   1_545  S
O80          H84   0.965       .  S
O81       Zr1553   2.381       .  S
O81       Zr1579   2.391       .  S
O81          H86   0.966       .  S
O82       Zr1576   2.382       .  S
O82       Zr1580   2.385       .  S
H96        O1555   0.990       .  S
H98        O1954   0.990   1_554  S
O99        Zr111   2.442       .  S
O99         C101   1.287       .  A
O100       Zr137   2.416       .  S
O100        C101   1.285       .  A
C101        C207   1.468       .  S
O102       Zr114   2.440       .  S
O102        C104   1.287       .  A
O103      Zr1642   2.434   1_455  S
O103        C104   1.287       .  A
C104        C168   1.472       .  S
O105       Zr114   2.444       .  S
O105        C107   1.288       .  A
O106       Zr137   2.423       .  S
O106        C859   1.285       .  A
C107        C312   1.472       .  S
C107        O858   1.286       .  A
O108       Zr111   2.471   1_655  S
O108       C1614   1.294       .  A
O109       Zr138   2.430   1_565  S
O109        C862   1.287       .  A
C110        C438   1.496   1_554  S
C110       O1612   1.294       .  A
C110        O861   1.292       .  A
Zr111       O112   2.434       .  S
Zr111      O1617   2.436   1_455  S
Zr111       O117   2.383       .  S
Zr111       O870   2.369       .  S
Zr111      O1645   2.365   1_455  S
Zr111      O1647   2.382   1_455  S
O112        H155   0.990       .  S
O113      Zr1615   2.436       .  S
O113        H154   0.990       .  S
O113       H1662   0.990       .  S
Zr114       O115   2.438       .  S
Zr114       O116   2.434       .  S
Zr114       O118   2.371       .  S
Zr114       O142   2.375       .  S
Zr114       O144   2.376       .  S
Zr114       O869   2.371   1_545  S
O115        H156   0.990       .  S
O115        H159   0.990       .  S
O116        H149   0.990       .  S
O117       Zr137   2.378       .  S
O117       Zr866   2.369       .  S
O118       Zr863   2.372   1_545  S
O118      Zr1642   2.383   1_455  S
O118        H145   0.965       .  S
O119       Zr131   2.438       .  S
O119        C121   1.288       .  A
O120       Zr890   2.415       .  S
O120        C121   1.284       .  A
C121        C189   1.467       .  S
O122       Zr134   2.472       .  S
O122        C876   1.294       .  A
O123       Zr137   2.420       .  S
O123       C1628   1.286       .  A
C124        O874   1.293       .  A
C124       O1627   1.288       .  A
O125       Zr134   2.457       .  S
O125        C127   1.290       .  A
O126       Zr138   2.413       .  S
O126        C127   1.285       .  A
C127        C279   1.471       .  S
O128       Zr131   2.443       .  S
O128        C130   1.287       .  A
O129      Zr1641   2.421       .  S
O129        C130   1.285       .  A
C130        C297   1.469       .  S
Zr131       O132   2.439       .  S
Zr131       O133   2.435       .  S
Zr131       O139   2.371       .  S
Zr131       O140   2.363       .  S
Zr131       O143   2.371       .  S
Zr131       O141   2.377       .  S
O132        H152   0.990       .  S
O132        H157   0.990       .  S
O133        H153   0.990       .  S
Zr134       O887   2.435       .  S
Zr134      O1640   2.435       .  S
Zr134       O892   2.370   1_545  S
Zr134       O891   2.380   1_545  S
Zr134      O1648   2.381       .  S
Zr134      O1646   2.369       .  S
O135       Zr886   2.436       .  S
O135        H151   0.990       .  S
O136      Zr1638   2.435   1_455  S
O136        H150   0.990       .  S
O136       H1664   0.990       .  S
Zr137      O1633   2.418   1_455  S
Zr137      O1644   2.380   1_455  S
Zr137       O894   2.384       .  S
Zr137      O1647   2.386   1_455  S
Zr138      O1607   2.434       .  S
Zr138       O872   2.422   1_545  S
Zr138      O1622   2.384       .  S
Zr138       O891   2.388   1_545  S
Zr138       O893   2.382   1_545  S
Zr138      O1648   2.388       .  S
O139       Zr886   2.382       .  S
O139       Zr890   2.392       .  S
O139        H147   0.965       .  S
O140       Zr886   2.370       .  S
O140      Zr1641   2.379       .  S
O141      Zr1615   2.371       .  S
O141       Zr890   2.380       .  S
O142      Zr1638   2.374   1_455  S
O142       Zr889   2.386   1_545  S
O142        H146   0.966       .  S
O143      Zr1615   2.385       .  S
O143      Zr1641   2.391       .  S
O143        H148   0.967       .  S
O144      Zr1638   2.378   1_455  S
O144      Zr1642   2.388   1_455  S
H158       O1617   0.990       .  S
H160       O1640   0.990       .  S
C161        C166   1.385       .  A
C161        C162   1.400       .  A
C161        N167   1.339       .  A
C162        C163   1.398       .  A
C162        H549   1.083       .  S
C163        C172   1.374       .  A
C163        C164   1.383       .  A
C164        C165   1.408       .  A
C164        N170   1.345       .  A
C165        C166   1.406       .  A
C165        H174   1.082       .  S
C166        C169   1.386       .  A
N167        C168   1.354       .  A
N167        H177   1.045       .  S
C168        C169   1.398       .  A
C169        H175   1.082       .  S
N170        C171   1.359       .  A
N170        H178   1.044       .  S
C171        C172   1.398       .  A
C172        H552   1.082       .  S
H173        C538   1.082       .  S
H176        C548   1.082       .  S
C179        C184   1.384       .  A
C179        C180   1.400       .  A
C179        N185   1.339       .  A
C180        C181   1.398       .  A
C180        H191   1.082       .  S
C181        C190   1.374       .  A
C181        C182   1.384       .  A
C182        C183   1.404       .  A
C182        N188   1.343       .  A
C183        C184   1.404       .  A
C183        H192   1.082       .  S
C184        C187   1.381       .  A
N185        C186   1.355       .  A
N185        H571   1.045       .  S
C186        C187   1.397       .  A
C187        H193   1.082       .  S
N188        C189   1.356       .  A
N188        H196   1.045       .  S
C189        C190   1.394       .  A
C190        H194   1.083       .  S
H195        N561   1.044       .  S
C197        C202   1.384       .  A
C197        C198   1.407       .  A
C197        N203   1.345       .  A
C198        C199   1.406       .  A
C198        H209   1.082       .  S
C199        C208   1.382       .  A
C199        C200   1.385       .  A
C200        C201   1.398       .  A
C200        N206   1.338       .  A
C201        C202   1.397       .  A
C201        H210   1.082       .  S
C202        C205   1.373       .  A
N203        C204   1.357       .  A
N203        H213   1.045       .  S
C204        C205   1.393       .  A
C205        H211   1.082       .  S
N206        C207   1.353       .  A
N206        H214   1.045       .  S
C207        C208   1.398       .  A
C208        H212   1.082       .  S
C215        C220   1.383       .  A
C215        C216   1.400       .  A
C215        N221   1.341       .  A
C216        C217   1.400       .  A
C216        H227   1.082       .  S
C217        C226   1.373       .  A
C217        C218   1.384       .  A
C218        C219   1.407       .  A
C218        N224   1.348       .  A
C219        C220   1.407       .  A
C219        H228   1.082       .  S
C220        C223   1.380       .  A
N221        C222   1.357       .  A
N221        H231   1.044       .  S
C222        C223   1.401       .  A
C223        H229   1.082       .  S
N224        C225   1.358       .  A
N224        H232   1.045       .  S
C225        C226   1.394       .  A
C226        H230   1.083       .  S
C233        C238   1.383       .  A
C233        C234   1.407       .  A
C233        N239   1.346       .  A
C234        C235   1.405       .  A
C234        H245   1.082       .  S
C235        C244   1.380       .  A
C235        C236   1.385       .  A
C236        C237   1.398       .  A
C236        N242   1.340       .  A
C237        C238   1.399       .  A
C237        H246   1.083       .  S
C238        C241   1.371       .  A
N239        C240   1.360       .  A
N239        H249   1.044       .  S
C240        C241   1.397       .  A
C241        H247   1.081       .  S
N242        C243   1.353       .  A
N242        H250   1.045       .  S
C243        C244   1.396       .  A
C244        H248   1.083       .  S
C251        C256   1.385       .  A
C251        C252   1.401       .  A
C251        N257   1.340       .  A
C252        C253   1.400       .  A
C252        H263   1.083       .  S
C253        C262   1.374       .  A
C253        C254   1.385       .  A
C254        C255   1.403       .  A
C254        N260   1.344       .  A
C255        C256   1.403       .  A
C255        H264   1.082       .  S
C256        C259   1.379       .  A
N257        C258   1.356       .  A
N257        H267   1.045       .  S
C258        C259   1.394       .  A
C259        H265   1.082       .  S
N260        C261   1.355       .  A
N260        H268   1.045       .  S
C261        C262   1.394       .  A
C262        H266   1.083       .  S
C269        C274   1.384       .  A
C269        C270   1.400       .  A
C269        N275   1.340       .  A
C270        C271   1.399       .  A
C270        H281   1.083       .  S
C271        C280   1.373       .  A
C271        C272   1.384       .  A
C272        C273   1.407       .  A
C272        N278   1.347       .  A
C273        C274   1.407       .  A
C273        H282   1.082       .  S
C274        C277   1.382       .  A
N275        C276   1.355       .  A
N275        H285   1.045       .  S
C276        C277   1.399       .  A
C277        H283   1.082       .  S
N278        C279   1.357       .  A
N278        H286   1.045       .  S
C279        C280   1.394       .  A
C280        H284   1.083       .  S
C287        C292   1.384       .  A
C287        C288   1.405       .  A
C287        N293   1.345       .  A
C288        C289   1.403       .  A
C288        H299   1.082       .  S
C289        C298   1.380       .  A
C289        C290   1.385       .  A
C290        C291   1.402       .  A
C290        N296   1.342       .  A
C291        C292   1.402       .  A
C291        H300   1.083       .  S
C292        C295   1.376       .  A
N293        C294   1.358       .  A
N293        H303   1.044       .  S
C294        C295   1.398       .  A
C295        H301   1.082       .  S
N296        C297   1.355       .  A
N296        H304   1.045       .  S
C297        C298   1.395       .  A
C298        H302   1.083       .  S
C305        C310   1.384       .  A
C305        C306   1.402       .  A
C305        N311   1.341       .  A
C306        C307   1.401       .  A
C306        H317   1.082       .  S
C307        C316   1.376       .  A
C307        C308   1.382       .  A
C308        C309   1.406       .  A
C308        N314   1.344       .  A
C309        C310   1.405       .  A
C309        H318   1.082       .  S
C310        C313   1.381       .  A
N311        C312   1.355       .  A
N311        H321   1.045       .  S
C312        C313   1.397       .  A
C313        H319   1.082       .  S
N314        C315   1.360       .  A
N314        H322   1.044       .  S
C315        C316   1.399       .  A
C316        H320   1.082       .  S
C323        C328   1.385       .  A
C323        C700   1.406       .  A
C323        N329   1.344       .  A
C324        C699   1.406       .  A
C324        C701   1.405       .  A
C324        H335   1.082   1_556  S
C325        C326   1.384       .  A
C325        C700   1.405       .  A
C325        C710   1.383       .  A
C326        C327   1.399       .  A
C326        N332   1.338       .  A
C327        C328   1.397       .  A
C327        H336   1.083       .  S
C328        C331   1.373       .  A
N329        C330   1.356       .  A
N329        H715   1.045       .  S
C330        C331   1.392       .  A
C331        H337   1.083       .  S
N332        C333   1.354       .  A
N332        H340   1.045       .  S
C333        C710   1.398       .  A
C333        C377   1.476       .  S
C334        C701   1.381       .  A
C334        C709   1.397       .  A
C334        H338   1.082   1_556  S
H339        N705   1.045       .  S
C341        C346   1.383       .  A
C341        C342   1.398       .  A
C341        N347   1.340       .  A
C342        C343   1.397       .  A
C342        H353   1.082       .  S
C343        C352   1.371       .  A
C343        C344   1.384       .  A
C344        C345   1.408       .  A
C344        N350   1.348       .  A
C345        C346   1.408       .  A
C345        H354   1.082       .  S
C346        C349   1.382       .  A
N347        C348   1.356       .  A
N347        H357   1.044       .  S
C348        C349   1.402       .  A
C348        C381   1.486       .  S
C349        H355   1.082       .  S
N350        C351   1.359       .  A
N350        H358   1.045       .  S
C351        C352   1.392       .  A
C352        H356   1.083       .  S
C359        C364   1.383       .  A
C359        C360   1.407       .  A
C359        N365   1.348       .  A
C360        C361   1.406       .  A
C360        H371   1.082       .  S
C361        C370   1.382       .  A
C361        C362   1.385       .  A
C362        C363   1.401       .  A
C362        N368   1.342       .  A
C363        C364   1.401       .  A
C363        H372   1.083       .  S
C364        C367   1.372       .  A
N365        C366   1.360       .  A
N365        H375   1.044       .  S
C366        C367   1.398       .  A
C366        C379   1.489       .  S
C367        H373   1.082       .  S
N368        C369   1.355       .  A
N368        H376   1.045       .  S
C369        C370   1.396       .  A
C370        H374   1.082       .  S
C377        C378   1.408       .  A
C377        C382   1.404       .  A
C378        C379   1.408       .  A
C378        H383   1.083       .  S
C379        C380   1.408       .  A
C380        C381   1.403       .  A
C380        H384   1.080       .  S
C381        C382   1.399       .  A
C382        H385   1.083       .  S
C386        C387   1.405       .  A
C386        C391   1.407       .  A
C386        C652   1.477       .  S
C387        C388   1.400       .  A
C387        H392   1.083       .  S
C388        C389   1.400       .  A
C388        C670   1.481       .  S
C389        C390   1.405       .  A
C389        H393   1.082       .  S
C390        C391   1.405       .  A
C390        C691   1.481       .  S
C391        H394   1.083       .  S
C395        C396   1.405       .  A
C395        C400   1.403       .  A
C395        C637   1.475       .  S
C396        C397   1.408       .  A
C396        H401   1.083       .  S
C397        C398   1.408       .  A
C397        C616   1.490       .  S
C398        C399   1.405       .  A
C398        H402   1.079       .  S
C399        C400   1.401       .  A
C399        C598   1.487       .  S
C400        H403   1.083       .  S
C404        C405   1.409       .  A
C404        C409   1.406       .  A
C404        C580   1.485       .  S
C405        C406   1.408       .  A
C405        H410   1.082       .  S
C406        C407   1.404       .  A
C406        C562   1.484       .  S
C407        C408   1.401       .  A
C407        H411   1.083       .  S
C408        C409   1.399       .  A
C408        C547   1.475       .  S
C409        H412   1.083       .  S
O413       Zr425   2.450   1_455  S
O413        C415   1.289       .  A
O414       Zr451   2.418   1_455  S
O414        C415   1.286       .  A
C415        C634   1.471       .  S
O416       Zr428   2.438       .  S
O416        C418   1.287       .  A
O417      Zr1956   2.422   1_545  S
O417        C418   1.285   1_655  A
C418        C601   1.470       .  S
O419       Zr428   2.455       .  S
O419        C421   1.290   1_545  A
O420       Zr451   2.424   1_455  S
O420       C1173   1.285       .  A
C421        C745   1.468   1_565  S
C421       O1172   1.284       .  A
O422       Zr425   2.477       .  S
O422       C1928   1.295       .  A
O423      Zr1204   2.427       .  S
O423        C424   1.287       .  A
C424        C500   1.489       .  S
C424       O1926   1.296       .  A
Zr425       O426   2.435   1_655  S
Zr425      O1931   2.438       .  S
Zr425       O431   2.382   1_655  S
Zr425      O1184   2.368   1_655  S
Zr425      O1959   2.368       .  S
Zr425      O1961   2.385       .  S
O426        H469   0.990       .  S
O427      Zr1929   2.436       .  S
O427        H468   0.990       .  S
O427       H1976   0.990       .  S
Zr428       O429   2.435       .  S
Zr428       O430   2.434       .  S
Zr428       O432   2.371   1_545  S
Zr428      O1183   2.372   1_545  S
Zr428       O456   2.360   1_445  S
Zr428       O458   2.377   1_455  S
O429        H470   0.990       .  S
O429        H473   0.990       .  S
O430        H463   0.990       .  S
O431      Zr1180   2.369       .  S
O431       Zr451   2.386   1_455  S
O432      Zr1177   2.371   1_455  S
O432      Zr1956   2.390   1_455  S
O432        H459   0.966   1_565  S
O433       Zr445   2.456       .  S
O433        C435   1.290       .  A
O434      Zr1204   2.423       .  S
O434        C435   1.285       .  A
C435        C619   1.474       .  S
O436       Zr448   2.466       .  S
O436       C1190   1.294       .  A
O437       Zr451   2.435       .  S
O437       C1942   1.288       .  A
C438       O1188   1.293       .  A
C438       O1941   1.293       .  A
O439       Zr448   2.442   1_545  S
O439        C441   1.287       .  A
O440       Zr452   2.410   1_545  S
O440        C441   1.285       .  A
C441        C706   1.464       .  S
O442       Zr445   2.447       .  S
O442        C444   1.289       .  A
O443      Zr1955   2.418       .  S
O443        C444   1.284       .  A
C444        C727   1.472       .  S
Zr445       O446   2.434       .  S
Zr445       O447   2.436       .  S
Zr445       O453   2.373       .  S
Zr445       O454   2.379       .  S
Zr445       O457   2.371       .  S
Zr445       O455   2.373       .  S
O446        H466   0.990       .  S
O446        H471   0.990       .  S
O447        H467   0.990       .  S
Zr448      O1201   2.434       .  S
Zr448      O1954   2.437   1_565  S
Zr448      O1206   2.371       .  S
Zr448      O1205   2.380       .  S
Zr448      O1962   2.379   1_565  S
Zr448      O1960   2.363       .  S
O449      Zr1200   2.436       .  S
O449        H465   0.990   1_556  S
O450      Zr1952   2.437   1_545  S
O450        H464   0.990   1_556  S
O450       H1602   0.990       .  S
Zr451      O1947   2.430       .  S
Zr451      O1958   2.381       .  S
Zr451      O1208   2.385       .  S
Zr451      O1961   2.389       .  S
Zr452      O1921   2.432   1_565  S
Zr452      O1175   2.432       .  S
Zr452      O1186   2.433       .  S
Zr452      O1936   2.383       .  S
Zr452      O1205   2.388       .  S
Zr452      O1207   2.379       .  S
Zr452      O1962   2.382   1_565  S
O453      Zr1200   2.386       .  S
O453      Zr1204   2.390       .  S
O453        H461   0.965       .  S
O454      Zr1200   2.375       .  S
O454      Zr1955   2.381       .  S
O455      Zr1929   2.365       .  S
O455      Zr1204   2.376       .  S
O456      Zr1952   2.369       .  S
O456      Zr1203   2.385       .  S
O456        H460   0.965   1_655  S
O457      Zr1929   2.386       .  S
O457      Zr1955   2.393       .  S
O457        H462   0.965       .  S
O458      Zr1952   2.380   1_545  S
O458      Zr1956   2.387   1_545  S
H472       O1931   0.990       .  S
H474       O1578   0.990       .  S
O475       Zr487   2.466       .  S
O475        C477   1.292       .  A
O476       Zr513   2.412       .  S
O476        C477   1.284       .  A
C477        C583   1.473       .  S
O478       Zr490   2.448       .  S
O478        C480   1.289       .  A
O479      Zr2018   2.414   1_455  S
O479        C480   1.284       .  A
C480        C544   1.471       .  S
O481       Zr490   2.438       .  S
O481        C483   1.287       .  A
O482       Zr513   2.426       .  S
O482       C1235   1.286       .  A
C483        C688   1.464       .  S
C483       O1234   1.284   1_545  A
O484       Zr487   2.479       .  S
O484       C1990   1.296       .  A
O485       Zr514   2.444       .  S
O485       C1238   1.290       .  A
C486       O1988   1.293       .  A
C486       O1237   1.288       .  A
Zr487       O488   2.435       .  S
Zr487      O1993   2.436       .  S
Zr487       O493   2.385       .  S
Zr487      O1246   2.377       .  S
Zr487      O2021   2.370   1_455  S
Zr487      O2023   2.374   1_455  S
O488        H531   0.990       .  S
O489      Zr1991   2.437       .  S
O489        H530   0.990       .  S
O489       H2038   0.990       .  S
Zr490       O491   2.436       .  S
Zr490       O492   2.435       .  S
Zr490       O494   2.375       .  S
Zr490      O1245   2.378   1_545  S
Zr490       O518   2.371       .  S
Zr490       O520   2.365   1_455  S
O491        H532   0.990       .  S
O491        H535   0.990       .  S
O492        H525   0.990       .  S
O493      Zr1242   2.375       .  S
O493       Zr513   2.387       .  S
O494      Zr1239   2.367   1_545  S
O494      Zr2018   2.377   1_455  S
O494        H521   0.966       .  S
O495       Zr507   2.439       .  S
O495        C497   1.287       .  A
O496      Zr1266   2.436       .  S
O496        C497   1.287       .  A
C497        C565   1.473       .  S
O498       Zr510   2.474       .  S
O498       C1252   1.294       .  A
O499       Zr513   2.431   1_655  S
O499       C2004   1.287       .  A
C500       O1250   1.295       .  A
C500       O2003   1.287       .  A
O501       Zr510   2.450   1_545  S
O501        C503   1.289       .  A
O502       Zr514   2.413       .  S
O502        C503   1.285       .  A
C503        C655   1.468       .  S
O504       Zr507   2.452       .  S
O504        C506   1.290       .  A
O505      Zr2017   2.418       .  S
O505        C506   1.285       .  A
C506        C673   1.474       .  S
Zr507       O508   2.438       .  S
Zr507       O509   2.435       .  S
Zr507       O515   2.376       .  S
Zr507       O516   2.373       .  S
Zr507       O519   2.367       .  S
Zr507       O517   2.375       .  S
O508        H528   0.990       .  S
O508        H533   0.990       .  S
O509        H529   0.990       .  S
Zr510      O1263   2.435       .  S
Zr510      O2016   2.437   1_565  S
Zr510      O1268   2.363       .  S
Zr510      O1267   2.389       .  S
Zr510      O2024   2.380   1_565  S
Zr510      O2022   2.369   1_565  S
O511      Zr1262   2.435       .  S
O511        H527   0.990       .  S
O512      Zr2014   2.437   1_545  S
O512        H526   0.990       .  S
O512       H2040   0.990       .  S
Zr513      O2009   2.426   1_455  S
Zr513      O2020   2.381   1_455  S
Zr513      O1270   2.384       .  S
Zr513      O2023   2.384   1_455  S
Zr514      O1983   2.409       .  S
Zr514      O1248   2.424   1_545  S
Zr514      O1998   2.381       .  S
Zr514      O1267   2.394   1_545  S
Zr514      O1269   2.377   1_545  S
Zr514      O2024   2.386       .  S
O515      Zr1262   2.383       .  S
O515      Zr1266   2.389       .  S
O515        H523   0.966       .  S
O516      Zr1262   2.369       .  S
O516      Zr2017   2.377       .  S
O517      Zr1991   2.371       .  S
O517      Zr1266   2.384       .  S
O518      Zr2014   2.371   1_445  S
O518      Zr1265   2.384   1_545  S
O518        H522   0.965       .  S
O519      Zr1991   2.378       .  S
O519      Zr2017   2.391       .  S
O519        H524   0.968       .  S
O520      Zr2014   2.382   1_545  S
O520      Zr2018   2.385       .  S
H534       O1993   0.990   1_655  S
H536       O2016   0.990       .  S
C537        C542   1.385       .  A
C537        C538   1.401       .  A
C537        N543   1.342       .  A
C538        C539   1.401       .  A
C539        C548   1.375       .  A
C539        C540   1.385       .  A
C540        C541   1.404       .  A
C540        N546   1.344       .  A
C541        C542   1.403       .  A
C541        H550   1.083       .  S
C542        C545   1.377       .  A
N543        C544   1.355       .  A
N543        H553   1.045       .  S
C544        C545   1.397       .  A
C545        H551   1.083       .  S
N546        C547   1.356       .  A
N546        H554   1.045       .  S
C547        C548   1.394       .  A
C555        C560   1.384       .  A
C555        C556   1.402       .  A
C555        N561   1.343       .  A
C556        C557   1.402       .  A
C556        H567   1.083       .  S
C557        C566   1.376       .  A
C557        C558   1.385       .  A
C558        C559   1.406       .  A
C558        N564   1.347       .  A
C559        C560   1.405       .  A
C559        H568   1.082       .  S
C560        C563   1.381       .  A
N561        C562   1.357       .  A
C562        C563   1.398       .  A
C563        H569   1.082       .  S
N564        C565   1.356       .  A
N564        H572   1.045       .  S
C565        C566   1.395       .  A
C566        H570   1.083       .  S
C573        C578   1.383       .  A
C573        C574   1.406       .  A
C573        N579   1.346       .  A
C574        C575   1.406       .  A
C574        H585   1.082       .  S
C575        C584   1.383       .  A
C575        C576   1.384       .  A
C576        C577   1.402       .  A
C576        N582   1.341       .  A
C577        C578   1.401       .  A
C577        H586   1.083       .  S
C578        C581   1.374       .  A
N579        C580   1.358       .  A
N579        H589   1.044       .  S
C580        C581   1.398       .  A
C581        H587   1.082       .  S
N582        C583   1.356       .  A
N582        H590   1.045       .  S
C583        C584   1.396       .  A
C584        H588   1.082       .  S
C591        C596   1.383       .  A
C591        C592   1.400       .  A
C591        N597   1.340       .  A
C592        C593   1.399       .  A
C592        H603   1.082       .  S
C593        C602   1.374       .  A
C593        C594   1.384       .  A
C594        C595   1.405       .  A
C594        N600   1.345       .  A
C595        C596   1.405       .  A
C595        H604   1.082       .  S
C596        C599   1.380       .  A
N597        C598   1.357       .  A
N597        H607   1.044       .  S
C598        C599   1.401       .  A
C599        H605   1.082       .  S
N600        C601   1.357       .  A
N600        H608   1.045   1_455  S
C601        C602   1.394       .  A
C602        H606   1.083       .  S
C609        C614   1.383       .  A
C609        C610   1.407       .  A
C609        N615   1.347       .  A
C610        C611   1.406       .  A
C610        H621   1.082       .  S
C611        C620   1.381       .  A
C611        C612   1.385       .  A
C612        C613   1.402       .  A
C612        N618   1.344       .  A
C613        C614   1.402       .  A
C613        H622   1.082       .  S
C614        C617   1.375       .  A
N615        C616   1.359       .  A
N615        H625   1.044       .  S
C616        C617   1.399       .  A
C617        H623   1.082       .  S
N618        C619   1.355       .  A
N618        H626   1.045       .  S
C619        C620   1.396       .  A
C620        H624   1.082       .  S
C627        C632   1.385       .  A
C627        C628   1.400       .  A
C627        N633   1.341       .  A
C628        C629   1.399       .  A
C628        H639   1.083       .  S
C629        C638   1.372       .  A
C629        C630   1.385       .  A
C630        C631   1.406       .  A
C630        N636   1.347       .  A
C631        C632   1.406       .  A
C631        H640   1.082       .  S
C632        C635   1.381       .  A
N633        C634   1.354       .  A
N633        H643   1.045       .  S
C634        C635   1.397       .  A
C635        H641   1.082       .  S
N636        C637   1.357       .  A
N636        H644   1.045       .  S
C637        C638   1.393       .  A
C638        H642   1.082       .  S
C645        C650   1.384       .  A
C645        C646   1.399       .  A
C645        N651   1.339       .  A
C646        C647   1.398       .  A
C646        H657   1.083       .  S
C647        C656   1.371       .  A
C647        C648   1.385       .  A
C648        C649   1.406       .  A
C648        N654   1.346       .  A
C649        C650   1.406       .  A
C649        H658   1.082       .  S
C650        C653   1.382       .  A
N651        C652   1.355       .  A
N651        H661   1.045       .  S
C652        C653   1.398       .  A
C653        H659   1.082       .  S
N654        C655   1.356       .  A
N654        H662   1.045       .  S
C655        C656   1.393       .  A
C656        H660   1.083       .  S
C663        C668   1.384       .  A
C663        C664   1.405       .  A
C663        N669   1.345       .  A
C664        C665   1.405       .  A
C664        H675   1.082       .  S
C665        C674   1.380       .  A
C665        C666   1.384       .  A
C666        C667   1.401       .  A
C666        N672   1.342       .  A
C667        C668   1.401       .  A
C667        H676   1.082       .  S
C668        C671   1.375       .  A
N669        C670   1.358       .  A
N669        H679   1.044       .  S
C670        C671   1.397       .  A
C671        H677   1.082       .  S
N672        C673   1.355       .  A
N672        H680   1.045       .  S
C673        C674   1.398       .  A
C674        H678   1.083       .  S
C681        C686   1.386       .  A
C681        C682   1.398       .  A
C681        N687   1.340       .  A
C682        C683   1.398       .  A
C682        H693   1.083       .  S
C683        C692   1.371       .  A
C683        C684   1.384       .  A
C684        C685   1.405       .  A
C684        N690   1.346       .  A
C685        C686   1.404       .  A
C685        H694   1.082       .  S
C686        C689   1.379       .  A
N687        C688   1.353       .  A
N687        H697   1.045       .  S
C688        C689   1.394       .  A
C689        H695   1.083   1_545  S
N690        C691   1.358       .  A
N690        H698   1.045       .  S
C691        C692   1.396       .  A
C692        H696   1.082       .  S
C699        C704   1.385       .  A
C699        N705   1.345       .  A
C700        H711   1.082       .  S
C701        C702   1.385       .  A
C702        C703   1.398       .  A
C702        N708   1.339       .  A
C703        C704   1.396       .  A
C703        H712   1.082       .  S
C704        C707   1.370       .  A
N705        C706   1.356       .  A
C706        C707   1.391       .  A
C707        H713   1.083       .  S
N708        C709   1.352       .  A
N708        H716   1.045       .  S
C710        H714   1.082       .  S
C717        C722   1.383       .  A
C717        C718   1.402       .  A
C717        N723   1.341       .  A
C718        C719   1.400       .  A
C718        H729   1.082       .  S
C719        C728   1.375       .  A
C719        C720   1.384       .  A
C720        C721   1.405       .  A
C720        N726   1.345       .  A
C721        C722   1.405       .  A
C721        H730   1.082       .  S
C722        C725   1.380       .  A
N723        C724   1.358       .  A
N723        H733   1.044       .  S
C724        C725   1.401       .  A
C725        H731   1.082       .  S
N726        C727   1.357       .  A
N726        H734   1.045       .  S
C727        C728   1.394       .  A
C728        H732   1.083       .  S
C735        C740   1.384       .  A
C735        C736   1.407       .  A
C735        N741   1.346       .  A
C736        C737   1.406       .  A
C736        H747   1.082   1_545  S
C737        C746   1.383   1_545  A
C737        C738   1.386       .  A
C738        C739   1.400       .  A
C738        N744   1.341       .  A
C739        C740   1.399       .  A
C739        H748   1.083   1_556  S
C740        C743   1.374   1_556  A
N741        C742   1.359       .  A
N741        H751   1.045       .  S
C742        C743   1.396   1_556  A
C743        H749   1.082       .  S
N744        C745   1.353       .  A
N744        H752   1.045       .  S
C745        C746   1.396   1_545  A
C746        H750   1.083       .  S
C753        C754   1.407       .  A
C753        C758   1.403       .  A
C753       C1461   1.475       .  S
C754        C755   1.408       .  A
C754        H759   1.083       .  S
C755        C756   1.407       .  A
C755       C1494   1.491       .  S
C756        C757   1.402       .  A
C756        H760   1.079       .  S
C757        C758   1.401       .  A
C757       C1476   1.483       .  S
C758        H761   1.083       .  S
C762        C763   1.405       .  A
C762        C767   1.407       .  A
C762       C1028   1.480       .  S
C763        C764   1.405       .  A
C763        H768   1.083       .  S
C764        C765   1.403       .  A
C764       C1046   1.480       .  S
C765        C766   1.399       .  A
C765        H769   1.081       .  S
C766        C767   1.401       .  A
C766       C1067   1.479       .  S
C767        H770   1.082       .  S
C771        C772   1.405       .  A
C771        C776   1.406       .  A
C771       C1013   1.478       .  S
C772        C773   1.408       .  A
C772        H777   1.083       .  S
C773        C774   1.409       .  A
C773        C992   1.490       .  S
C774        C775   1.403       .  A
C774        H778   1.080       .  S
C775        C776   1.402       .  A
C775        C974   1.486       .  S
C776        H779   1.083       .  S
C780        C781   1.405       .  A
C780        C785   1.406       .  A
C780        C956   1.478       .  S
C781        C782   1.401       .  A
C781        H786   1.083       .  S
C782        C783   1.400       .  A
C782        C938   1.479       .  S
C783        C784   1.407       .  A
C783        H787   1.081       .  S
C784        C785   1.407       .  A
C784        C923   1.485       .  S
C785        H788   1.083       .  S
O789       Zr801   2.453       .  S
O789        C791   1.289       .  A
O790       Zr827   2.426       .  S
O790        C791   1.287       .  A
C791       C1010   1.475       .  S
O792       Zr804   2.447       .  S
O792        C794   1.289       .  A
O793      Zr2332   2.438       .  S
O793        C794   1.288       .  A
C794        C977   1.480       .  S
O795       Zr804   2.440       .  S
O795        C797   1.288       .  A
O796       Zr827   2.432   1_545  S
C797       C1121   1.474       .  S
O798       Zr801   2.470   1_545  S
O798       C2304   1.293       .  A
O799        C800   1.287       .  A
C800        C876   1.489       .  S
C800       O2302   1.294       .  A
Zr801       O802   2.434   1_565  S
Zr801      O2307   2.441       .  S
Zr801       O807   2.383   1_565  S
Zr801      O2335   2.368       .  S
Zr801      O2337   2.381       .  S
O802        H845   0.990       .  S
O803      Zr2305   2.438   1_565  S
O803        H844   0.990       .  S
O803       H2352   0.990       .  S
Zr804       O805   2.436       .  S
Zr804       O806   2.434       .  S
Zr804       O808   2.376       .  S
Zr804       O832   2.381       .  S
Zr804       O834   2.372       .  S
O805        H846   0.990       .  S
O805        H849   0.990       .  S
O806        H839   0.990       .  S
O807       Zr827   2.384   1_545  S
O808      Zr2332   2.384       .  S
O808        H835   0.966       .  S
O809       Zr821   2.439       .  S
O809        C811   1.287       .  A
O810        C811   1.286   1_545  A
C811        C995   1.469       .  S
O812       Zr824   2.461       .  S
O813       Zr827   2.438       .  S
O813       C2318   1.289   1_565  A
C814       C1238   1.491       .  S
C814       O2317   1.290   1_545  A
O815       Zr824   2.451       .  S
O815        C817   1.289       .  A
O816       Zr828   2.417       .  S
O816        C817   1.285       .  A
C817       C1082   1.471       .  S
O818       Zr821   2.438       .  S
O818        C820   1.287       .  A
O819      Zr2331   2.417       .  S
O819        C820   1.284       .  A
C820       C1103   1.469       .  S
Zr821       O822   2.436       .  S
Zr821       O823   2.436       .  S
Zr821       O829   2.369   1_565  S
Zr821       O830   2.369       .  S
Zr821       O833   2.369       .  S
Zr821       O831   2.367       .  S
O822        H842   0.990       .  S
O822        H847   0.990       .  S
O823        H843   0.990       .  S
Zr824      O2330   2.436       .  S
Zr824      O2338   2.379       .  S
Zr824      O2336   2.375       .  S
O825        H841   0.990       .  S
O826      Zr2328   2.435   1_455  S
O826        H840   0.990       .  S
O826       H2730   0.990       .  S
Zr827      O2323   2.422       .  S
Zr827      O2334   2.382   1_455  S
Zr827      O2337   2.391       .  S
Zr828      O2297   2.432       .  S
Zr828      O2312   2.384       .  S
Zr828      O2338   2.383       .  S
O829        H837   0.965       .  S
O830      Zr2331   2.377       .  S
O831      Zr2305   2.361   1_565  S
O832      Zr2328   2.370   1_455  S
O832        H836   0.966       .  S
O833      Zr2305   2.382   1_565  S
O833      Zr2331   2.393       .  S
O833        H838   0.966       .  S
O834      Zr2328   2.386   1_455  S
O834      Zr2332   2.383       .  S
H848       O2307   0.990       .  S
H850       O2706   0.990       .  S
O851       Zr863   2.455       .  S
O851        C853   1.290       .  A
O852       Zr889   2.427       .  S
O852        C853   1.287       .  A
C853        C959   1.476       .  S
O854       Zr866   2.427       .  S
O854        C856   1.286       .  A
O855      Zr2394   2.430   1_455  S
O855        C856   1.286       .  A
C856        C920   1.466       .  S
O857       Zr866   2.437       .  S
O857        C859   1.286       .  A
O858       Zr889   2.424   1_545  S
C859       C1064   1.469       .  S
O860       Zr863   2.471   1_655  S
O860       C2366   1.294       .  A
O861       Zr890   2.451       .  S
C862       C1190   1.485   1_554  S
C862       O2364   1.294       .  A
Zr863       O864   2.436       .  S
Zr863      O2369   2.436   1_455  S
Zr863       O869   2.383       .  S
Zr863      O2397   2.375   1_455  S
Zr863      O2399   2.381   1_455  S
O864        H907   0.990       .  S
O865      Zr2367   2.437       .  S
O865        H906   0.990       .  S
O865       H2414   0.990       .  S
Zr866       O867   2.438       .  S
Zr866       O868   2.435       .  S
Zr866       O870   2.376       .  S
Zr866       O894   2.369       .  S
Zr866       O896   2.371       .  S
O867        H908   0.990       .  S
O867        H911   0.990       .  S
O868        H901   0.990       .  S
O869       Zr889   2.383       .  S
O870      Zr2394   2.381   1_455  S
O870        H897   0.965       .  S
O871       Zr883   2.432       .  S
O871        C873   1.286       .  A
O872        C873   1.285       .  A
C873        C941   1.468       .  S
O874       Zr886   2.465       .  S
O875       Zr889   2.439   1_545  S
O875       C2380   1.289       .  A
C876       O2379   1.288       .  A
O877       Zr886   2.455       .  S
O877        C879   1.289       .  A
O878       Zr890   2.420       .  S
O878        C879   1.286       .  A
C879       C1031   1.473       .  S
O880       Zr883   2.426       .  S
O880        C882   1.284       .  A
O881      Zr2393   2.418       .  S
O881        C882   1.284       .  A
C882       C1049   1.461       .  S
Zr883       O884   2.439       .  S
Zr883       O885   2.435       .  S
Zr883       O891   2.360       .  S
Zr883       O892   2.366       .  S
Zr883       O895   2.372       .  S
Zr883       O893   2.375       .  S
O884        H904   0.990       .  S
O884        H909   0.990       .  S
O885        H905   0.990       .  S
Zr886      O2392   2.436       .  S
Zr886      O2400   2.380       .  S
Zr886      O2398   2.372       .  S
O887        H903   0.990       .  S
O888      Zr2390   2.438   1_455  S
O888        H902   0.990       .  S
O888       H2416   0.990       .  S
Zr889      O2385   2.416       .  S
Zr889      O2396   2.383   1_455  S
Zr889      O2399   2.389   1_455  S
Zr890      O2359   2.420       .  S
Zr890      O2374   2.379       .  S
Zr890      O2400   2.389       .  S
O891        H899   0.965       .  S
O892      Zr2393   2.379       .  S
O893      Zr2367   2.376       .  S
O894      Zr2390   2.376   1_455  S
O894        H898   0.967       .  S
O895      Zr2367   2.383       .  S
O895      Zr2393   2.391       .  S
O895        H900   0.967       .  S
O896      Zr2390   2.376   1_455  S
O896      Zr2394   2.385   1_455  S
H910       O2369   0.990       .  S
H912       O2392   0.990       .  S
C913        C918   1.385       .  A
C913        C914   1.398       .  A
C913        N919   1.338       .  A
C914        C915   1.397       .  A
C914       H1301   1.083       .  S
C915        C924   1.371       .  A
C915        C916   1.383       .  A
C916        C917   1.408       .  A
C916        N922   1.346       .  A
C917        C918   1.406       .  A
C917        H926   1.082       .  S
C918        C921   1.384       .  A
N919        C920   1.353       .  A
N919        H929   1.045       .  S
C920        C921   1.397       .  A
C921        H927   1.082       .  S
N922        C923   1.360       .  A
N922        H930   1.044       .  S
C923        C924   1.396       .  A
C924       H1304   1.082       .  S
H925       C1290   1.082       .  S
H928       C1300   1.082       .  S
C931        C936   1.384       .  A
C931        C932   1.401       .  A
C931        N937   1.341       .  A
C932        C933   1.400       .  A
C932        H943   1.083       .  S
C933        C942   1.373       .  A
C933        C934   1.385       .  A
C934        C935   1.404       .  A
C934        N940   1.344       .  A
C935        C936   1.403       .  A
C935        H944   1.082       .  S
C936        C939   1.378       .  A
N937        C938   1.356       .  A
N937       H1323   1.045       .  S
C938        C939   1.397       .  A
C939        H945   1.082       .  S
N940        C941   1.356       .  A
N940        H948   1.045       .  S
C941        C942   1.394       .  A
C942        H946   1.083       .  S
H947       N1313   1.044       .  S
C949        C954   1.384       .  A
C949        C950   1.408       .  A
C949        N955   1.348       .  A
C950        C951   1.408       .  A
C950        H961   1.082       .  S
C951        C960   1.383       .  A
C951        C952   1.385       .  A
C952        C953   1.401       .  A
C952        N958   1.342       .  A
C953        C954   1.400       .  A
C953        H962   1.082       .  S
C954        C957   1.373       .  A
N955        C956   1.358       .  A
N955        H965   1.045       .  S
C956        C957   1.394       .  A
C957        H963   1.082       .  S
N958        C959   1.355       .  A
N958        H966   1.045       .  S
C959        C960   1.399       .  A
C960        H964   1.082       .  S
C967        C972   1.384       .  A
C967        C968   1.401       .  A
C967        N973   1.342       .  A
C968        C969   1.401       .  A
C968        H979   1.082       .  S
C969        C978   1.376       .  A
C969        C970   1.384       .  A
C970        C971   1.409       .  A
C970        N976   1.348       .  A
C971        C972   1.408       .  A
C971        H980   1.082       .  S
C972        C975   1.384       .  A
N973        C974   1.356       .  A
N973        H983   1.044       .  S
C974        C975   1.400       .  A
C975        H981   1.082       .  S
N976        C977   1.359       .  A
N976        H984   1.045       .  S
C977        C978   1.395       .  A
C978        H982   1.082       .  S
C985        C990   1.383       .  A
C985        C986   1.407       .  A
C985        N991   1.346       .  A
C986        C987   1.405       .  A
C986        H997   1.082       .  S
C987        C996   1.382       .  A
C987        C988   1.385       .  A
C988        C989   1.400       .  A
C988        N994   1.340       .  A
C989        C990   1.399       .  A
C989        H998   1.083       .  S
C990        C993   1.374       .  A
N991        C992   1.360       .  A
N991       H1001   1.044       .  S
C992        C993   1.399       .  A
C993        H999   1.081       .  S
N994        C995   1.354       .  A
N994       H1002   1.045       .  S
C995        C996   1.396       .  A
C996       H1000   1.082   1_565  S
C1003      C1008   1.384       .  A
C1003      C1004   1.400       .  A
C1003      N1009   1.341       .  A
C1004      C1005   1.399       .  A
C1004      H1015   1.082       .  S
C1005      C1014   1.374       .  A
C1005      C1006   1.384       .  A
C1006      C1007   1.408       .  A
C1006      N1012   1.347       .  A
C1007      C1008   1.408       .  A
C1007      H1016   1.082       .  S
C1008      C1011   1.385       .  A
N1009      C1010   1.354       .  A
N1009      H1019   1.045       .  S
C1010      C1011   1.399       .  A
C1011      H1017   1.082       .  S
N1012      C1013   1.358       .  A
N1012      H1020   1.045       .  S
C1013      C1014   1.394       .  A
C1014      H1018   1.082       .  S
C1021      C1026   1.384       .  A
C1021      C1022   1.397       .  A
C1021      N1027   1.338       .  A
C1022      C1023   1.396       .  A
C1022      H1033   1.082       .  S
C1023      C1032   1.370       .  A
C1023      C1024   1.384       .  A
C1024      C1025   1.409       .  A
C1024      N1030   1.349       .  A
C1025      C1026   1.409       .  A
C1025      H1034   1.082       .  S
C1026      C1029   1.383       .  A
N1027      C1028   1.354       .  A
N1027      H1037   1.044       .  S
C1028      C1029   1.401       .  A
C1029      H1035   1.082       .  S
N1030      C1031   1.359       .  A
N1030      H1038   1.045       .  S
C1031      C1032   1.391       .  A
C1032      H1036   1.083       .  S
C1039      C1044   1.384       .  A
C1039      C1040   1.403       .  A
C1039      N1045   1.343       .  A
C1040      C1041   1.402       .  A
C1040      H1051   1.082       .  S
C1041      C1050   1.378       .  A
C1041      C1042   1.386       .  A
C1042      C1043   1.399       .  A
C1042      N1048   1.339       .  A
C1043      C1044   1.398       .  A
C1043      H1052   1.083       .  S
C1044      C1047   1.371       .  A
N1045      C1046   1.357       .  A
N1045      H1055   1.044       .  S
C1046      C1047   1.397       .  A
C1047      H1053   1.082       .  S
N1048      C1049   1.354       .  A
N1048      H1056   1.045       .  S
C1049      C1050   1.393       .  A
C1050      H1054   1.083       .  S
C1057      C1062   1.385       .  A
C1057      C1058   1.400       .  A
C1057      N1063   1.340       .  A
C1058      C1059   1.399       .  A
C1058      H1069   1.083       .  S
C1059      C1068   1.372       .  A
C1059      C1060   1.384       .  A
C1060      C1061   1.404       .  A
C1060      N1066   1.344       .  A
C1061      C1062   1.404       .  A
C1061      H1070   1.082       .  S
C1062      C1065   1.379       .  A
N1063      C1064   1.355       .  A
N1063      H1073   1.045       .  S
C1064      C1065   1.396       .  A
C1065      H1071   1.082       .  S
N1066      C1067   1.357       .  A
N1066      H1074   1.044       .  S
C1067      C1068   1.396       .  A
C1068      H1072   1.082       .  S
C1075      C1080   1.384       .  A
C1075      C1452   1.407       .  A
C1075      N1081   1.346       .  A
C1076      C1451   1.404       .  A
C1076      C1453   1.404       .  A
C1076      H1087   1.082   1_556  S
C1077      C1452   1.407       .  A
C1077      C1462   1.383       .  A
C1077      C1078   1.384       .  A
C1078      C1079   1.400       .  A
C1078      N1084   1.340       .  A
C1079      C1080   1.399       .  A
C1079      H1088   1.082       .  S
C1080      C1083   1.374       .  A
N1081      C1082   1.357       .  A
N1081      H1467   1.045       .  S
C1082      C1083   1.393       .  A
C1083      H1089   1.083       .  S
N1084      C1085   1.355       .  A
N1084      H1092   1.045       .  S
C1085      C1462   1.398       .  A
C1085      C1129   1.478       .  S
C1086      C1453   1.381       .  A
C1086      C1461   1.396       .  A
C1086      H1090   1.082   1_556  S
H1091      N1457   1.045       .  S
C1093      C1098   1.384       .  A
C1093      C1094   1.401       .  A
C1093      N1099   1.342       .  A
C1094      C1095   1.400       .  A
C1094      H1105   1.082       .  S
C1095      C1104   1.373       .  A
C1095      C1096   1.384       .  A
C1096      C1097   1.404       .  A
C1096      N1102   1.345       .  A
C1097      C1098   1.405       .  A
C1097      H1106   1.082       .  S
C1098      C1101   1.378       .  A
N1099      C1100   1.357       .  A
N1099      H1109   1.044       .  S
C1100      C1101   1.399       .  A
C1100      C1133   1.485       .  S
C1101      H1107   1.082       .  S
N1102      C1103   1.357       .  A
N1102      H1110   1.045       .  S
C1103      C1104   1.393       .  A
C1104      H1108   1.083       .  S
C1111      C1116   1.383       .  A
C1111      C1112   1.409       .  A
C1111      N1117   1.348       .  A
C1112      C1113   1.408       .  A
C1112      H1123   1.082       .  S
C1113      C1122   1.385       .  A
C1113      C1114   1.384       .  A
C1114      C1115   1.402       .  A
C1114      N1120   1.342       .  A
C1115      C1116   1.401       .  A
C1115      H1124   1.082       .  S
C1116      C1119   1.375       .  A
N1117      C1118   1.360       .  A
N1117      H1127   1.044       .  S
C1118      C1119   1.397       .  A
C1118      C1131   1.488       .  S
C1119      H1125   1.082       .  S
N1120      C1121   1.355       .  A
N1120      H1128   1.045       .  S
C1121      C1122   1.398       .  A
C1122      H1126   1.082       .  S
C1129      C1130   1.407       .  A
C1129      C1134   1.403       .  A
C1130      C1131   1.407       .  A
C1130      H1135   1.083       .  S
C1131      C1132   1.408       .  A
C1132      C1133   1.404       .  A
C1132      H1136   1.081       .  S
C1133      C1134   1.402       .  A
C1134      H1137   1.083       .  S
C1138      C1139   1.407       .  A
C1138      C1143   1.411       .  A
C1138      C1404   1.489       .  S
C1139      C1140   1.402       .  A
C1139      H1144   1.080       .  S
C1140      C1141   1.399       .  A
C1140      C1422   1.481       .  S
C1141      C1142   1.402       .  A
C1141      H1145   1.081       .  S
C1142      C1143   1.407       .  A
C1142      C1443   1.484       .  S
C1143      H1146   1.082       .  S
C1147      C1148   1.408       .  A
C1147      C1152   1.405       .  A
C1147      C1389   1.478       .  S
C1148      C1149   1.409       .  A
C1148      H1153   1.082       .  S
C1149      C1150   1.407       .  A
C1149      C1368   1.493       .  S
C1150      C1151   1.402       .  A
C1150      H1154   1.080       .  S
C1151      C1152   1.402       .  A
C1151      C1350   1.482       .  S
C1152      H1155   1.083       .  S
C1156      C1157   1.405       .  A
C1156      C1161   1.403       .  A
C1156      C1332   1.475       .  S
C1157      C1158   1.407       .  A
C1157      H1162   1.083       .  S
C1158      C1159   1.406       .  A
C1158      C1314   1.482       .  S
C1159      C1160   1.400       .  A
C1159      H1163   1.081       .  S
C1160      C1161   1.397       .  A
C1160      C1299   1.476       .  S
C1161      H1164   1.083       .  S
O1165     Zr1177   2.468   1_455  S
O1165      C1167   1.292       .  A
O1166     Zr1203   2.416   1_455  S
O1166      C1167   1.284       .  A
C1167      C1386   1.478       .  S
O1168     Zr1180   2.438       .  S
O1168      C1170   1.287       .  A
O1169     Zr2708   2.420       .  S
O1169      C1170   1.285   1_655  A
C1170      C1353   1.470       .  S
O1171     Zr1180   2.449       .  S
O1171      C1173   1.289       .  A
O1172     Zr1203   2.417   1_455  S
C1173      C1497   1.470       .  S
O1174     Zr1177   2.474       .  S
O1174      C2680   1.295       .  A
O1175      C1176   1.288       .  A
C1176      C1252   1.489       .  S
C1176      O2678   1.294       .  A
Zr1177     O1178   2.436   1_655  S
Zr1177     O2683   2.437       .  S
Zr1177     O1183   2.378   1_655  S
Zr1177     O2711   2.378       .  S
Zr1177     O2713   2.383       .  S
O1178      H1221   0.990       .  S
O1179     Zr2681   2.436       .  S
O1179      H1220   0.990       .  S
O1179      H2728   0.990       .  S
Zr1180     O1181   2.438       .  S
Zr1180     O1182   2.434       .  S
Zr1180     O1184   2.369       .  S
Zr1180     O1208   2.361   1_455  S
Zr1180     O1210   2.379   1_455  S
O1181      H1222   0.990       .  S
O1181      H1225   0.990       .  S
O1182      H1215   0.990       .  S
O1183     Zr1203   2.390   1_455  S
O1184     Zr2708   2.382   1_455  S
O1184      H1211   0.966       .  S
O1185     Zr1197   2.443       .  S
O1185      C1187   1.288       .  A
O1186      C1187   1.287       .  A
C1187      C1371   1.472       .  S
O1188     Zr1200   2.472       .  S
O1189     Zr1203   2.438       .  S
O1189      C2694   1.289       .  A
C1190      O2693   1.289       .  A
O1191     Zr1200   2.449       .  S
O1191      C1193   1.289       .  A
O1192     Zr1204   2.409       .  S
O1192      C1193   1.284       .  A
C1193      C1458   1.468       .  S
O1194     Zr1197   2.438       .  S
O1194      C1196   1.287       .  A
O1195     Zr2707   2.424       .  S
O1195      C1196   1.285       .  A
C1196      C1479   1.471       .  S
Zr1197     O1198   2.437       .  S
Zr1197     O1199   2.433       .  S
Zr1197     O1205   2.365       .  S
Zr1197     O1206   2.373       .  S
Zr1197     O1209   2.372       .  S
Zr1197     O1207   2.376       .  S
O1198      H1218   0.990       .  S
O1198      H1223   0.990       .  S
O1199      H1219   0.990       .  S
Zr1200     O2706   2.435       .  S
Zr1200     O2714   2.378       .  S
Zr1200     O2712   2.367       .  S
O1201      H1217   0.990   1_556  S
O1202     Zr2704   2.437       .  S
O1202      H1216   0.990       .  S
O1202      H2354   0.990   1_556  S
Zr1203     O2699   2.422       .  S
Zr1203     O2710   2.384       .  S
Zr1203     O2713   2.393       .  S
Zr1204     O2673   2.420       .  S
Zr1204     O2688   2.378       .  S
Zr1204     O2714   2.382       .  S
O1205      H1213   0.965       .  S
O1206     Zr2707   2.379       .  S
O1207     Zr2681   2.369       .  S
O1208     Zr2704   2.372       .  S
O1208      H1212   0.965   1_655  S
O1209     Zr2681   2.382       .  S
O1209     Zr2707   2.391       .  S
O1209      H1214   0.967       .  S
O1210     Zr2704   2.385       .  S
O1210     Zr2708   2.389       .  S
H1224      O2683   0.990       .  S
H1226      O2330   0.990       .  S
O1227     Zr1239   2.441       .  S
O1227      C1229   1.287       .  A
O1228     Zr1265   2.423       .  S
O1228      C1229   1.287       .  A
C1229      C1335   1.467       .  S
O1230     Zr1242   2.443       .  S
O1230      C1232   1.288       .  A
O1231     Zr2770   2.415   1_455  S
O1231      C1232   1.284       .  A
C1232      C1296   1.469       .  S
O1233     Zr1242   2.444       .  S
O1233      C1235   1.287       .  A
O1234     Zr1265   2.418       .  S
C1235      C1440   1.470       .  S
O1236     Zr1239   2.471       .  S
O1236      C2742   1.294   1_565  A
O1237     Zr1266   2.433       .  S
C1238      O2740   1.293   1_545  A
Zr1239     O1240   2.434   1_565  S
Zr1239     O2745   2.438       .  S
Zr1239     O1245   2.383       .  S
Zr1239     O2773   2.370   1_455  S
Zr1239     O2775   2.381   1_455  S
O1240      H1283   0.990   1_545  S
O1241     Zr2743   2.436       .  S
O1241      H1282   0.990       .  S
O1241      H2790   0.990       .  S
Zr1242     O1243   2.433       .  S
Zr1242     O1244   2.437       .  S
Zr1242     O1246   2.378       .  S
Zr1242     O1270   2.370       .  S
Zr1242     O1272   2.363   1_455  S
O1243      H1284   0.990       .  S
O1243      H1287   0.990       .  S
O1244      H1277   0.990       .  S
O1245     Zr1265   2.385       .  S
O1246     Zr2770   2.386   1_455  S
O1246      H1273   0.966       .  S
O1247     Zr1259   2.439       .  S
O1247      C1249   1.288       .  A
O1248      C1249   1.285       .  A
C1249      C1317   1.469       .  S
O1250     Zr1262   2.474       .  S
O1251     Zr1265   2.435   1_655  S
O1251      C2756   1.288       .  A
C1252      O2755   1.287       .  A
O1253     Zr1262   2.450       .  S
O1253      C1255   1.289       .  A
O1254     Zr1266   2.421       .  S
O1254      C1255   1.286       .  A
C1255      C1407   1.469       .  S
O1256     Zr1259   2.437       .  S
O1256      C1258   1.286       .  A
O1257     Zr2769   2.417       .  S
O1257      C1258   1.285       .  A
C1258      C1425   1.468       .  S
Zr1259     O1260   2.438       .  S
Zr1259     O1261   2.434       .  S
Zr1259     O1267   2.372       .  S
Zr1259     O1268   2.370       .  S
Zr1259     O1271   2.370       .  S
Zr1259     O1269   2.373       .  S
O1260      H1280   0.990       .  S
O1260      H1285   0.990       .  S
O1261      H1281   0.990       .  S
Zr1262     O2768   2.438       .  S
Zr1262     O2776   2.380       .  S
Zr1262     O2774   2.370       .  S
O1263      H1279   0.990       .  S
O1264     Zr2766   2.438       .  S
O1264      H1278   0.990       .  S
O1264      H2792   0.990       .  S
Zr1265     O2761   2.415   1_455  S
Zr1265     O2772   2.377   1_455  S
Zr1265     O2775   2.381   1_455  S
Zr1266     O2735   2.430       .  S
Zr1266     O2750   2.385       .  S
Zr1266     O2776   2.383       .  S
O1267      H1275   0.965       .  S
O1268     Zr2769   2.375       .  S
O1269     Zr2743   2.374       .  S
O1270     Zr2766   2.370   1_455  S
O1270      H1274   0.965       .  S
O1271     Zr2743   2.381       .  S
O1271     Zr2769   2.386       .  S
O1271      H1276   0.967       .  S
O1272     Zr2766   2.377       .  S
O1272     Zr2770   2.386       .  S
H1286      O2745   0.990       .  S
H1288      O2768   0.990       .  S
C1289      C1294   1.385       .  A
C1289      C1290   1.400       .  A
C1289      N1295   1.339       .  A
C1290      C1291   1.398       .  A
C1291      C1300   1.373       .  A
C1291      C1292   1.384       .  A
C1292      C1293   1.404       .  A
C1292      N1298   1.343       .  A
C1293      C1294   1.403       .  A
C1293      H1302   1.082       .  S
C1294      C1297   1.379       .  A
N1295      C1296   1.354       .  A
N1295      H1305   1.045       .  S
C1296      C1297   1.397       .  A
C1297      H1303   1.083       .  S
N1298      C1299   1.357       .  A
N1298      H1306   1.044       .  S
C1299      C1300   1.395       .  A
C1307      C1312   1.383       .  A
C1307      C1308   1.398       .  A
C1307      N1313   1.339       .  A
C1308      C1309   1.398       .  A
C1308      H1319   1.083       .  S
C1309      C1318   1.371       .  A
C1309      C1310   1.386       .  A
C1310      C1311   1.406       .  A
C1310      N1316   1.346       .  A
C1311      C1312   1.405       .  A
C1311      H1320   1.082       .  S
C1312      C1315   1.380       .  A
N1313      C1314   1.356       .  A
C1314      C1315   1.399       .  A
C1315      H1321   1.082       .  S
N1316      C1317   1.357       .  A
N1316      H1324   1.045       .  S
C1317      C1318   1.392       .  A
C1318      H1322   1.083       .  S
C1325      C1330   1.384       .  A
C1325      C1326   1.406       .  A
C1325      N1331   1.347       .  A
C1326      C1327   1.406       .  A
C1326      H1337   1.082       .  S
C1327      C1336   1.381       .  A
C1327      C1328   1.385       .  A
C1328      C1329   1.397       .  A
C1328      N1334   1.339       .  A
C1329      C1330   1.396       .  A
C1329      H1338   1.083       .  S
C1330      C1333   1.368       .  A
N1331      C1332   1.358       .  A
N1331      H1341   1.045       .  S
C1332      C1333   1.393       .  A
C1333      H1339   1.082       .  S
N1334      C1335   1.353       .  A
N1334      H1342   1.045       .  S
C1335      C1336   1.397       .  A
C1336      H1340   1.082       .  S
C1343      C1348   1.384       .  A
C1343      C1344   1.399       .  A
C1343      N1349   1.338       .  A
C1344      C1345   1.397       .  A
C1344      H1355   1.083       .  S
C1345      C1354   1.373       .  A
C1345      C1346   1.384       .  A
C1346      C1347   1.407       .  A
C1346      N1352   1.345       .  A
C1347      C1348   1.406       .  A
C1347      H1356   1.082       .  S
C1348      C1351   1.383       .  A
N1349      C1350   1.356       .  A
N1349      H1359   1.044       .  S
C1350      C1351   1.400       .  A
C1351      H1357   1.082       .  S
N1352      C1353   1.357       .  A
N1352      H1360   1.045   1_455  S
C1353      C1354   1.393       .  A
C1354      H1358   1.083       .  S
C1361      C1366   1.382       .  A
C1361      C1362   1.408       .  A
C1361      N1367   1.347       .  A
C1362      C1363   1.407       .  A
C1362      H1373   1.082       .  S
C1363      C1372   1.385       .  A
C1363      C1364   1.385       .  A
C1364      C1365   1.400       .  A
C1364      N1370   1.341       .  A
C1365      C1366   1.400       .  A
C1365      H1374   1.083       .  S
C1366      C1369   1.373       .  A
N1367      C1368   1.361       .  A
N1367      H1377   1.044       .  S
C1368      C1369   1.400       .  A
C1369      H1375   1.081       .  S
N1370      C1371   1.354       .  A
N1370      H1378   1.045       .  S
C1371      C1372   1.397       .  A
C1372      H1376   1.082       .  S
C1379      C1384   1.384       .  A
C1379      C1380   1.404       .  A
C1379      N1385   1.344       .  A
C1380      C1381   1.403       .  A
C1380      H1391   1.083       .  S
C1381      C1390   1.378       .  A
C1381      C1382   1.384       .  A
C1382      C1383   1.406       .  A
C1382      N1388   1.346       .  A
C1383      C1384   1.405       .  A
C1383      H1392   1.082       .  S
C1384      C1387   1.382       .  A
N1385      C1386   1.357       .  A
N1385      H1395   1.045       .  S
C1386      C1387   1.397       .  A
C1387      H1393   1.082       .  S
N1388      C1389   1.356       .  A
N1388      H1396   1.045       .  S
C1389      C1390   1.396       .  A
C1390      H1394   1.082       .  S
C1397      C1402   1.383       .  A
C1397      C1398   1.403       .  A
C1397      N1403   1.342       .  A
C1398      C1399   1.401       .  A
C1398      H1409   1.083       .  S
C1399      C1408   1.376       .  A
C1399      C1400   1.385       .  A
C1400      C1401   1.405       .  A
C1400      N1406   1.346       .  A
C1401      C1402   1.405       .  A
C1401      H1410   1.082       .  S
C1402      C1405   1.380       .  A
N1403      C1404   1.359       .  A
N1403      H1413   1.044       .  S
C1404      C1405   1.399       .  A
C1405      H1411   1.082       .  S
N1406      C1407   1.356       .  A
N1406      H1414   1.045       .  S
C1407      C1408   1.394       .  A
C1408      H1412   1.083       .  S
C1415      C1420   1.383       .  A
C1415      C1416   1.402       .  A
C1415      N1421   1.342       .  A
C1416      C1417   1.401       .  A
C1416      H1427   1.082       .  S
C1417      C1426   1.377       .  A
C1417      C1418   1.385       .  A
C1418      C1419   1.401       .  A
C1418      N1424   1.341       .  A
C1419      C1420   1.400       .  A
C1419      H1428   1.083       .  S
C1420      C1423   1.374       .  A
N1421      C1422   1.357       .  A
N1421      H1431   1.044       .  S
C1422      C1423   1.398       .  A
C1423      H1429   1.082       .  S
N1424      C1425   1.355       .  A
N1424      H1432   1.045       .  S
C1425      C1426   1.395       .  A
C1426      H1430   1.082       .  S
C1433      C1438   1.385       .  A
C1433      C1434   1.401       .  A
C1433      N1439   1.343       .  A
C1434      C1435   1.401       .  A
C1434      H1445   1.083       .  S
C1435      C1444   1.373       .  A
C1435      C1436   1.384       .  A
C1436      C1437   1.405       .  A
C1436      N1442   1.346       .  A
C1437      C1438   1.404       .  A
C1437      H1446   1.082       .  S
C1438      C1441   1.380       .  A
N1439      C1440   1.355       .  A
N1439      H1449   1.045       .  S
C1440      C1441   1.395       .  A
C1441      H1447   1.082       .  S
N1442      C1443   1.357       .  A
N1442      H1450   1.045       .  S
C1443      C1444   1.398       .  A
C1444      H1448   1.082       .  S
C1451      C1456   1.385       .  A
C1451      N1457   1.344       .  A
C1452      H1463   1.082       .  S
C1453      C1454   1.385       .  A
C1454      C1455   1.401       .  A
C1454      N1460   1.341       .  A
C1455      C1456   1.400       .  A
C1455      H1464   1.083       .  S
C1456      C1459   1.374       .  A
N1457      C1458   1.355       .  A
C1458      C1459   1.395       .  A
C1459      H1465   1.083       .  S
N1460      C1461   1.355       .  A
N1460      H1468   1.045       .  S
C1462      H1466   1.082       .  S
C1469      C1474   1.384       .  A
C1469      C1470   1.400       .  A
C1469      N1475   1.339       .  A
C1470      C1471   1.398       .  A
C1470      H1481   1.083       .  S
C1471      C1480   1.373       .  A
C1471      C1472   1.384       .  A
C1472      C1473   1.406       .  A
C1472      N1478   1.346       .  A
C1473      C1474   1.406       .  A
C1473      H1482   1.082       .  S
C1474      C1477   1.382       .  A
N1475      C1476   1.356       .  A
N1475      H1485   1.044       .  S
C1476      C1477   1.400       .  A
C1477      H1483   1.082       .  S
N1478      C1479   1.357       .  A
N1478      H1486   1.045       .  S
C1479      C1480   1.394       .  A
C1480      H1484   1.083       .  S
C1487      C1492   1.383       .  A
C1487      C1488   1.408       .  A
C1487      N1493   1.347       .  A
C1488      C1489   1.407       .  A
C1488      H1499   1.082       .  S
C1489      C1498   1.384       .  A
C1489      C1490   1.385       .  A
C1490      C1491   1.400       .  A
C1490      N1496   1.341       .  A
C1491      C1492   1.400       .  A
C1491      H1500   1.083   1_556  S
C1492      C1495   1.373   1_556  A
N1493      C1494   1.360       .  A
N1493      H1503   1.044       .  S
C1494      C1495   1.399   1_556  A
C1495      H1501   1.082       .  S
N1496      C1497   1.353       .  A
N1496      H1504   1.045       .  S
C1497      C1498   1.397       .  A
C1498      H1502   1.082       .  S
C1505      C1506   1.408       .  A
C1505      C1510   1.405       .  A
C1505      C2213   1.482       .  S
C1506      C1507   1.409       .  A
C1506      H1511   1.083       .  S
C1507      C1508   1.408       .  A
C1507      C2246   1.492       .  S
C1508      C1509   1.403       .  A
C1508      H1512   1.079       .  S
C1509      C1510   1.403       .  A
C1509      C2228   1.488       .  S
C1510      H1513   1.082       .  S
C1514      C1515   1.406       .  A
C1514      C1519   1.407       .  A
C1514      C1780   1.481       .  S
C1515      C1516   1.406       .  A
C1515      H1520   1.083       .  S
C1516      C1517   1.404       .  A
C1516      C1798   1.483       .  S
C1517      C1518   1.402       .  A
C1517      H1521   1.081       .  S
C1518      C1519   1.401       .  A
C1518      C1819   1.482       .  S
C1519      H1522   1.083       .  S
C1523      C1524   1.407       .  A
C1523      C1528   1.404       .  A
C1523      C1765   1.478       .  S
C1524      C1525   1.409       .  A
C1524      H1529   1.082       .  S
C1525      C1526   1.412       .  A
C1525      C1744   1.494       .  S
C1526      C1527   1.401       .  A
C1526      H1530   1.080       .  S
C1527      C1528   1.399       .  A
C1527      C1726   1.482       .  S
C1528      H1531   1.084       .  S
C1532      C1533   1.406       .  A
C1532      C1537   1.406       .  A
C1532      C1708   1.475       .  S
C1533      C1534   1.402       .  A
C1533      H1538   1.084       .  S
C1534      C1535   1.400       .  A
C1534      C1690   1.481       .  S
C1535      C1536   1.406       .  A
C1535      H1539   1.080       .  S
C1536      C1537   1.405       .  A
C1536      C1675   1.487       .  S
C1537      H1540   1.083       .  S
O1541     Zr1553   2.450       .  S
O1541      C1543   1.289       .  A
O1542     Zr1579   2.415       .  S
O1542      C1543   1.285       .  A
C1543      C1762   1.470       .  S
O1544     Zr1556   2.441       .  S
O1544      C1546   1.288       .  A
O1545      C1546   1.288       .  A
C1546      C1729   1.478       .  S
O1547     Zr1556   2.456       .  S
O1547      C1549   1.290       .  A
O1548     Zr1579   2.421       .  S
O1548      C2301   1.285       .  A
C1549      C1873   1.475       .  S
C1549      O2300   1.286       .  A
O1550     Zr1553   2.466       .  S
O1551     Zr2332   2.420       .  S
O1551      C1552   1.285       .  A
C1552      C1628   1.484       .  S
Zr1553     O1554   2.436       .  S
Zr1553     O1559   2.381       .  S
Zr1553     O2312   2.373       .  S
O1554      H1597   0.989       .  S
O1555      H1596   0.990       .  S
Zr1556     O1557   2.436       .  S
Zr1556     O1558   2.433       .  S
Zr1556     O1560   2.387       .  S
Zr1556     O2311   2.370       .  S
Zr1556     O1584   2.373       .  S
Zr1556     O1586   2.375       .  S
O1557      H1598   0.990       .  S
O1557      H1601   0.990       .  S
O1558      H1591   0.990       .  S
O1559     Zr2308   2.369       .  S
O1559     Zr1579   2.386       .  S
O1560     Zr2305   2.375       .  S
O1560      H1587   0.966       .  S
O1561     Zr1573   2.446       .  S
O1561      C1563   1.289       .  A
O1562     Zr2332   2.432   1_655  S
O1562      C1563   1.287       .  A
C1563      C1747   1.475       .  S
O1564     Zr1576   2.470       .  S
O1564      C2318   1.294       .  A
O1565     Zr1579   2.435       .  S
C1566      C1990   1.494       .  S
C1566      O2316   1.296       .  A
O1567     Zr1576   2.459   1_655  S
O1567      C1569   1.291       .  A
O1568     Zr1580   2.425   1_655  S
O1568      C1569   1.287       .  A
C1569      C1834   1.478       .  S
O1570     Zr1573   2.442       .  S
O1570      C1572   1.288       .  A
O1571      C1572   1.287   1_455  A
C1572      C1855   1.476       .  S
Zr1573     O1574   2.435       .  S
Zr1573     O1575   2.436       .  S
Zr1573     O1581   2.371       .  S
Zr1573     O1582   2.371       .  S
Zr1573     O1585   2.374   1_655  S
Zr1573     O1583   2.364   1_655  S
O1574      H1594   0.990       .  S
O1574      H1599   0.990       .  S
O1575      H1595   0.990       .  S
Zr1576     O2329   2.435   1_455  S
Zr1576     O2334   2.371   1_445  S
Zr1576     O2333   2.380   1_455  S
O1577     Zr2328   2.435       .  S
O1577      H1593   0.990       .  S
O1578      H1592   0.990       .  S
Zr1579     O2336   2.388       .  S
Zr1580     O2303   2.436       .  S
Zr1580     O2314   2.424   1_455  S
Zr1580     O2333   2.392   1_455  S
Zr1580     O2335   2.382   1_545  S
O1581     Zr2328   2.383       .  S
O1581     Zr2332   2.390   1_655  S
O1581      H1589   0.964       .  S
O1582     Zr2328   2.366       .  S
O1583     Zr2332   2.380       .  S
O1584     Zr2331   2.380   1_545  S
O1584      H1588   0.966       .  S
O1585      H1590   0.966       .  S
O1603     Zr1615   2.453       .  S
O1603      C1605   1.290       .  A
O1604     Zr1641   2.418       .  S
O1604      C1605   1.286       .  A
C1605      C1711   1.473       .  S
O1606     Zr1618   2.442       .  S
O1606      C1608   1.288       .  A
O1607      C1608   1.287       .  A
C1608      C1672   1.472       .  S
O1609     Zr1618   2.446       .  S
O1609      C1611   1.288       .  A
O1610     Zr1641   2.430       .  S
O1610      C2363   1.287       .  A
C1611      C1816   1.473       .  S
C1611      O2362   1.286       .  A
O1612     Zr1615   2.473       .  S
O1613     Zr1642   2.431   1_565  S
O1613      C2366   1.288       .  A
C1614      C1942   1.485   1_554  S
C1614      O2365   1.287       .  A
Zr1615     O1616   2.435       .  S
Zr1615     O1621   2.384       .  S
Zr1615     O2374   2.366       .  S
O1616      H1659   0.990       .  S
O1617      H1658   0.990       .  S
Zr1618     O1619   2.438       .  S
Zr1618     O1620   2.435       .  S
Zr1618     O1622   2.372       .  S
Zr1618     O2373   2.370   1_545  S
Zr1618     O1646   2.376       .  S
Zr1618     O1648   2.377       .  S
O1619      H1660   0.990       .  S
O1619      H1663   0.990       .  S
O1620      H1653   0.990       .  S
O1621     Zr2370   2.367       .  S
O1621     Zr1641   2.383       .  S
O1622     Zr2367   2.372   1_545  S
O1622      H1649   0.965       .  S
O1623     Zr1635   2.430       .  S
O1623      C1625   1.286       .  A
O1624     Zr2394   2.425       .  S
O1624      C1625   1.286       .  A
C1625      C1693   1.469       .  S
O1626     Zr1638   2.468   1_455  S
O1626      C2380   1.293       .  A
O1627     Zr1641   2.434       .  S
C1628      O2378   1.296       .  A
O1629     Zr1638   2.466       .  S
O1629      C1631   1.292       .  A
O1630     Zr1642   2.406       .  S
O1630      C1631   1.284       .  A
C1631      C1783   1.472       .  S
O1632     Zr1635   2.432       .  S
O1632      C1634   1.285       .  A
O1633      C1634   1.284       .  A
C1634      C1801   1.463       .  S
Zr1635     O1636   2.439       .  S
Zr1635     O1637   2.434       .  S
Zr1635     O1643   2.365       .  S
Zr1635     O1644   2.363       .  S
Zr1635     O1647   2.371       .  S
Zr1635     O1645   2.375       .  S
O1636      H1656   0.990       .  S
O1636      H1661   0.990       .  S
O1637      H1657   0.990       .  S
Zr1638     O2391   2.436       .  S
Zr1638     O2396   2.373   1_545  S
Zr1638     O2395   2.379   1_545  S
O1639     Zr2390   2.435       .  S
O1639      H1655   0.990       .  S
O1640      H1654   0.990       .  S
Zr1641     O2398   2.386       .  S
Zr1642     O2376   2.428   1_545  S
Zr1642     O2395   2.390   1_545  S
Zr1642     O2397   2.381   1_545  S
O1643     Zr2390   2.381       .  S
O1643     Zr2394   2.388       .  S
O1643      H1651   0.965       .  S
O1644     Zr2390   2.371       .  S
O1645     Zr2394   2.374       .  S
O1646     Zr2393   2.382   1_545  S
O1646      H1650   0.966       .  S
O1647      H1652   0.968       .  S
C1665      C1670   1.385       .  A
C1665      C1666   1.399       .  A
C1665      N1671   1.341       .  A
C1666      C1667   1.399       .  A
C1666      H2053   1.083       .  S
C1667      C1676   1.371       .  A
C1667      C1668   1.383       .  A
C1668      C1669   1.408       .  A
C1668      N1674   1.348       .  A
C1669      C1670   1.408       .  A
C1669      H1678   1.082       .  S
C1670      C1673   1.384       .  A
N1671      C1672   1.354       .  A
N1671      H1681   1.045       .  S
C1672      C1673   1.397       .  A
C1673      H1679   1.082       .  S
N1674      C1675   1.360       .  A
N1674      H1682   1.044       .  S
C1675      C1676   1.397       .  A
C1676      H2056   1.082       .  S
H1677      C2042   1.082       .  S
H1680      C2052   1.082       .  S
C1683      C1688   1.384       .  A
C1683      C1684   1.401       .  A
C1683      N1689   1.340       .  A
C1684      C1685   1.400       .  A
C1684      H1695   1.083       .  S
C1685      C1694   1.375       .  A
C1685      C1686   1.385       .  A
C1686      C1687   1.404       .  A
C1686      N1692   1.343       .  A
C1687      C1688   1.403       .  A
C1687      H1696   1.082       .  S
C1688      C1691   1.380       .  A
N1689      C1690   1.357       .  A
N1689      H2075   1.044       .  S
C1690      C1691   1.398       .  A
C1691      H1697   1.082       .  S
N1692      C1693   1.355       .  A
N1692      H1700   1.045       .  S
C1693      C1694   1.395       .  A
C1694      H1698   1.083       .  S
H1699      N2065   1.044       .  S
C1701      C1706   1.384       .  A
C1701      C1702   1.407       .  A
C1701      N1707   1.346       .  A
C1702      C1703   1.406       .  A
C1702      H1713   1.082       .  S
C1703      C1712   1.383       .  A
C1703      C1704   1.384       .  A
C1704      C1705   1.400       .  A
C1704      N1710   1.339       .  A
C1705      C1706   1.398       .  A
C1705      H1714   1.082       .  S
C1706      C1709   1.374       .  A
N1707      C1708   1.357       .  A
N1707      H1717   1.045       .  S
C1708      C1709   1.393       .  A
C1709      H1715   1.082       .  S
N1710      C1711   1.354       .  A
N1710      H1718   1.045       .  S
C1711      C1712   1.398       .  A
C1712      H1716   1.082       .  S
C1719      C1724   1.384       .  A
C1719      C1720   1.403       .  A
C1719      N1725   1.344       .  A
C1720      C1721   1.403       .  A
C1720      H1731   1.082       .  S
C1721      C1730   1.377       .  A
C1721      C1722   1.384       .  A
C1722      C1723   1.406       .  A
C1722      N1728   1.347       .  A
C1723      C1724   1.406       .  A
C1723      H1732   1.082       .  S
C1724      C1727   1.381       .  A
N1725      C1726   1.356       .  A
N1725      H1735   1.045       .  S
C1726      C1727   1.398       .  A
C1727      H1733   1.082       .  S
N1728      C1729   1.357       .  A
N1728      H1736   1.045       .  S
C1729      C1730   1.396       .  A
C1730      H1734   1.083       .  S
C1737      C1742   1.383       .  A
C1737      C1738   1.410       .  A
C1737      N1743   1.348       .  A
C1738      C1739   1.408       .  A
C1738      H1749   1.082       .  S
C1739      C1748   1.386       .  A
C1739      C1740   1.385       .  A
C1740      C1741   1.398       .  A
C1740      N1746   1.340       .  A
C1741      C1742   1.398       .  A
C1741      H1750   1.083       .  S
C1742      C1745   1.372       .  A
N1743      C1744   1.362       .  A
N1743      H1753   1.044       .  S
C1744      C1745   1.398       .  A
C1745      H1751   1.081       .  S
N1746      C1747   1.353       .  A
N1746      H1754   1.045       .  S
C1747      C1748   1.399       .  A
C1748      H1752   1.082       .  S
C1755      C1760   1.385       .  A
C1755      C1756   1.400       .  A
C1755      N1761   1.339       .  A
C1756      C1757   1.399       .  A
C1756      H1767   1.083       .  S
C1757      C1766   1.374       .  A
C1757      C1758   1.384       .  A
C1758      C1759   1.407       .  A
C1758      N1764   1.346       .  A
C1759      C1760   1.406       .  A
C1759      H1768   1.082       .  S
C1760      C1763   1.383       .  A
N1761      C1762   1.354       .  A
N1761      H1771   1.045       .  S
C1762      C1763   1.397       .  A
C1763      H1769   1.082       .  S
N1764      C1765   1.357       .  A
N1764      H1772   1.044       .  S
C1765      C1766   1.395       .  A
C1766      H1770   1.083       .  S
C1773      C1778   1.384       .  A
C1773      C1774   1.400       .  A
C1773      N1779   1.340       .  A
C1774      C1775   1.399       .  A
C1774      H1785   1.083       .  S
C1775      C1784   1.373       .  A
C1775      C1776   1.384       .  A
C1776      C1777   1.407       .  A
C1776      N1782   1.347       .  A
C1777      C1778   1.407       .  A
C1777      H1786   1.082       .  S
C1778      C1781   1.382       .  A
N1779      C1780   1.355       .  A
N1779      H1789   1.044       .  S
C1780      C1781   1.399       .  A
C1781      H1787   1.082       .  S
N1782      C1783   1.357       .  A
N1782      H1790   1.045       .  S
C1783      C1784   1.395       .  A
C1784      H1788   1.083       .  S
C1791      C1796   1.383       .  A
C1791      C1792   1.403       .  A
C1791      N1797   1.343       .  A
C1792      C1793   1.402       .  A
C1792      H1803   1.082       .  S
C1793      C1802   1.379       .  A
C1793      C1794   1.385       .  A
C1794      C1795   1.401       .  A
C1794      N1800   1.340       .  A
C1795      C1796   1.400       .  A
C1795      H1804   1.083       .  S
C1796      C1799   1.374       .  A
N1797      C1798   1.357       .  A
N1797      H1807   1.044       .  S
C1798      C1799   1.398       .  A
C1799      H1805   1.082       .  S
N1800      C1801   1.354       .  A
N1800      H1808   1.045       .  S
C1801      C1802   1.394       .  A
C1802      H1806   1.083       .  S
C1809      C1814   1.384       .  A
C1809      C1810   1.401       .  A
C1809      N1815   1.341       .  A
C1810      C1811   1.400       .  A
C1810      H1821   1.082       .  S
C1811      C1820   1.373       .  A
C1811      C1812   1.384       .  A
C1812      C1813   1.406       .  A
C1812      N1818   1.346       .  A
C1813      C1814   1.406       .  A
C1813      H1822   1.082       .  S
C1814      C1817   1.381       .  A
N1815      C1816   1.355       .  A
N1815      H1825   1.045       .  S
C1816      C1817   1.398       .  A
C1817      H1823   1.082       .  S
N1818      C1819   1.358       .  A
N1818      H1826   1.044       .  S
C1819      C1820   1.396       .  A
C1820      H1824   1.082       .  S
C1827      C1832   1.384       .  A
C1827      C2204   1.409       .  A
C1827      N1833   1.348       .  A
C1828      C2203   1.408       .  A
C1828      C2205   1.407       .  A
C1828      H1839   1.082   1_556  S
C1829      C2204   1.409       .  A
C1829      C2214   1.386       .  A
C1829      C1830   1.384       .  A
C1830      C1831   1.402       .  A
C1830      N1836   1.342       .  A
C1831      C1832   1.401       .  A
C1831      H1840   1.082       .  S
C1832      C1835   1.376       .  A
N1833      C1834   1.358       .  A
N1833      H2219   1.045       .  S
C1834      C1835   1.395       .  A
C1835      H1841   1.083       .  S
N1836      C1837   1.355       .  A
N1836      H1844   1.045       .  S
C1837      C2214   1.399       .  A
C1837      C1881   1.483       .  S
C1838      C2205   1.384       .  A
C1838      C2213   1.398       .  A
C1838      H1842   1.082   1_556  S
H1843      N2209   1.045       .  S
C1845      C1850   1.383       .  A
C1845      C1846   1.403       .  A
C1845      N1851   1.343       .  A
C1846      C1847   1.401       .  A
C1846      H1857   1.082       .  S
C1847      C1856   1.376       .  A
C1847      C1848   1.384       .  A
C1848      C1849   1.406       .  A
C1848      N1854   1.346       .  A
C1849      C1850   1.406       .  A
C1849      H1858   1.082       .  S
C1850      C1853   1.381       .  A
N1851      C1852   1.358       .  A
N1851      H1861   1.044       .  S
C1852      C1853   1.400       .  A
C1852      C1885   1.487       .  S
C1853      H1859   1.082       .  S
N1854      C1855   1.357       .  A
N1854      H1862   1.045       .  S
C1855      C1856   1.396       .  A
C1856      H1860   1.083       .  S
C1863      C1868   1.383       .  A
C1863      C1864   1.408       .  A
C1863      N1869   1.349       .  A
C1864      C1865   1.408       .  A
C1864      H1875   1.082       .  S
C1865      C1874   1.383       .  A
C1865      C1866   1.385       .  A
C1866      C1867   1.402       .  A
C1866      N1872   1.344       .  A
C1867      C1868   1.402       .  A
C1867      H1876   1.082       .  S
C1868      C1871   1.375       .  A
N1869      C1870   1.359       .  A
N1869      H1879   1.045       .  S
C1870      C1871   1.398       .  A
C1870      C1883   1.489       .  S
C1871      H1877   1.082       .  S
N1872      C1873   1.355       .  A
N1872      H1880   1.045       .  S
C1873      C1874   1.397       .  A
C1874      H1878   1.082       .  S
C1881      C1882   1.410       .  A
C1881      C1886   1.406       .  A
C1882      C1883   1.409       .  A
C1882      H1887   1.083       .  S
C1883      C1884   1.407       .  A
C1884      C1885   1.403       .  A
C1884      H1888   1.081       .  S
C1885      C1886   1.404       .  A
C1886      H1889   1.083       .  S
C1890      C1891   1.403       .  A
C1890      C1895   1.404       .  A
C1890      C2156   1.473       .  S
C1891      C1892   1.401       .  A
C1891      H1896   1.082       .  S
C1892      C1893   1.403       .  A
C1892      C2174   1.484       .  S
C1893      C1894   1.405       .  A
C1893      H1897   1.080       .  S
C1894      C1895   1.403       .  A
C1894      C2195   1.481       .  S
C1895      H1898   1.083       .  S
C1899      C1900   1.407       .  A
C1899      C1904   1.404       .  A
C1899      C2141   1.475       .  S
C1900      C1901   1.408       .  A
C1900      H1905   1.083       .  S
C1901      C1902   1.408       .  A
C1901      C2120   1.489       .  S
C1902      C1903   1.400       .  A
C1902      H1906   1.079       .  S
C1903      C1904   1.399       .  A
C1903      C2102   1.484       .  S
C1904      H1907   1.083       .  S
C1908      C1909   1.407       .  A
C1908      C1913   1.401       .  A
C1908      C2084   1.476       .  S
C1909      C1910   1.406       .  A
C1909      H1914   1.082       .  S
C1910      C1911   1.405       .  A
C1910      C2066   1.482       .  S
C1911      C1912   1.399       .  A
C1911      H1915   1.082       .  S
C1912      C1913   1.395       .  A
C1912      C2051   1.470       .  S
C1913      H1916   1.083       .  S
O1917     Zr1929   2.443       .  S
O1917      C1919   1.289       .  A
O1918     Zr1955   2.424       .  S
O1918      C1919   1.287       .  A
C1919      C2138   1.469       .  S
O1920     Zr1932   2.430       .  S
O1920      C1922   1.286       .  A
O1921      C1922   1.287       .  A
C1922      C2105   1.471       .  S
O1923     Zr1932   2.446       .  S
O1923      C1925   1.288   1_545  A
O1924     Zr1955   2.413       .  S
O1924      C2677   1.283       .  A
C1925      C2249   1.469   1_565  S
C1925      O2676   1.286       .  A
O1926     Zr1929   2.479       .  S
O1927     Zr2708   2.429       .  S
O1927      C1928   1.287       .  A
C1928      C2004   1.489       .  S
Zr1929     O1930   2.435       .  S
Zr1929     O1935   2.383       .  S
Zr1929     O2688   2.360       .  S
O1930      H1973   0.990       .  S
O1931      H1972   0.990       .  S
Zr1932     O1933   2.436       .  S
Zr1932     O1934   2.434       .  S
Zr1932     O1936   2.372   1_545  S
Zr1932     O2687   2.367   1_545  S
Zr1932     O1960   2.362   1_545  S
Zr1932     O1962   2.371       .  S
O1933      H1974   0.990       .  S
O1933      H1977   0.990       .  S
O1934      H1967   0.990       .  S
O1935     Zr2684   2.368       .  S
O1935     Zr1955   2.387       .  S
O1936     Zr2681   2.371       .  S
O1936      H1963   0.966   1_565  S
O1937     Zr1949   2.446       .  S
O1937      C1939   1.288       .  A
O1938     Zr2708   2.425       .  S
O1938      C1939   1.285       .  A
C1939      C2123   1.470       .  S
O1940     Zr1952   2.469       .  S
O1940      C2694   1.293       .  A
O1941     Zr1955   2.457       .  S
C1942      O2692   1.295       .  A
O1943     Zr1952   2.456   1_545  S
O1943      C1945   1.290       .  A
O1944     Zr1956   2.429   1_545  S
O1944      C1945   1.288       .  A
C1945      C2210   1.478       .  S
O1946     Zr1949   2.444       .  S
O1946      C1948   1.288       .  A
O1947      C1948   1.287       .  A
C1948      C2231   1.476       .  S
Zr1949     O1950   2.441       .  S
Zr1949     O1951   2.434       .  S
Zr1949     O1957   2.369       .  S
Zr1949     O1958   2.376       .  S
Zr1949     O1961   2.372       .  S
Zr1949     O1959   2.374       .  S
O1950      H1970   0.990       .  S
O1950      H1975   0.990       .  S
O1951      H1971   0.990       .  S
Zr1952     O2705   2.436       .  S
Zr1952     O2710   2.377       .  S
Zr1952     O2709   2.379       .  S
O1953     Zr2704   2.434       .  S
O1953      H1969   0.990       .  S
O1954      H1968   0.990       .  S
Zr1955     O2712   2.381       .  S
Zr1956     O2679   2.433       .  S
Zr1956     O2690   2.435       .  S
Zr1956     O2709   2.386       .  S
Zr1956     O2711   2.387       .  S
O1957     Zr2704   2.378       .  S
O1957     Zr2708   2.386       .  S
O1957      H1965   0.965       .  S
O1958     Zr2704   2.372       .  S
O1959     Zr2708   2.378       .  S
O1960     Zr2707   2.377       .  S
O1960      H1964   0.965       .  S
O1961      H1966   0.966       .  S
O1979     Zr1991   2.453       .  S
O1979      C1981   1.290       .  A
O1980     Zr2017   2.395       .  S
O1980      C1981   1.281       .  A
C1981      C2087   1.460       .  S
O1982     Zr1994   2.445       .  S
O1982      C1984   1.288       .  A
O1983      C1984   1.283       .  A
C1984      C2048   1.467       .  S
O1985     Zr1994   2.438       .  S
O1985      C1987   1.287       .  A
O1986     Zr2017   2.434       .  S
O1986      C2739   1.287       .  A
C1987      C2192   1.468       .  S
C1987      O2738   1.286   1_545  A
O1988     Zr1991   2.466       .  S
O1989     Zr2018   2.434       .  S
O1989      C2742   1.288   1_655  A
C1990      O2741   1.289   1_455  A
Zr1991     O1992   2.436       .  S
Zr1991     O1997   2.379       .  S
Zr1991     O2750   2.374       .  S
O1992      H2035   0.990       .  S
O1993      H2034   0.990       .  S
Zr1994     O1995   2.435       .  S
Zr1994     O1996   2.435       .  S
Zr1994     O1998   2.373       .  S
Zr1994     O2749   2.373   1_545  S
Zr1994     O2022   2.373       .  S
Zr1994     O2024   2.365       .  S
O1995      H2036   0.990       .  S
O1995      H2039   0.990       .  S
O1996      H2029   0.990       .  S
O1997     Zr2746   2.367       .  S
O1997     Zr2017   2.383       .  S
O1998     Zr2743   2.371   1_545  S
O1998      H2025   0.966       .  S
O1999     Zr2011   2.429       .  S
O1999      C2001   1.286       .  A
O2000     Zr2770   2.439       .  S
O2000      C2001   1.288       .  A
C2001      C2069   1.472       .  S
O2002     Zr2014   2.474       .  S
O2002      C2756   1.294       .  A
O2003     Zr2017   2.431       .  S
C2004      O2754   1.295       .  A
O2005     Zr2014   2.444   1_545  S
O2005      C2007   1.288       .  A
O2006     Zr2018   2.398       .  S
O2006      C2007   1.283       .  A
C2007      C2159   1.460       .  S
O2008     Zr2011   2.425       .  S
O2008      C2010   1.285       .  A
O2009      C2010   1.286       .  A
C2010      C2177   1.466       .  S
Zr2011     O2012   2.434       .  S
Zr2011     O2013   2.435       .  S
Zr2011     O2019   2.370       .  S
Zr2011     O2020   2.375       .  S
Zr2011     O2023   2.367       .  S
Zr2011     O2021   2.370       .  S
O2012      H2032   0.990       .  S
O2012      H2037   0.990       .  S
O2013      H2033   0.990       .  S
Zr2014     O2767   2.437       .  S
Zr2014     O2772   2.366       .  S
Zr2014     O2771   2.380       .  S
O2015     Zr2766   2.435       .  S
O2015      H2031   0.990       .  S
O2016      H2030   0.990       .  S
Zr2017     O2774   2.378       .  S
Zr2018     O2752   2.429   1_545  S
Zr2018     O2771   2.387   1_545  S
Zr2018     O2773   2.372   1_545  S
O2019     Zr2766   2.384       .  S
O2019     Zr2770   2.388       .  S
O2019      H2027   0.965       .  S
O2020     Zr2766   2.370       .  S
O2021     Zr2770   2.372       .  S
O2022     Zr2769   2.380   1_545  S
O2022      H2026   0.965       .  S
O2023      H2028   0.967       .  S
C2041      C2046   1.385       .  A
C2041      C2042   1.400       .  A
C2041      N2047   1.340       .  A
C2042      C2043   1.398       .  A
C2043      C2052   1.374       .  A
C2043      C2044   1.385       .  A
C2044      C2045   1.403       .  A
C2044      N2050   1.341       .  A
C2045      C2046   1.402       .  A
C2045      H2054   1.083       .  S
C2046      C2049   1.377       .  A
N2047      C2048   1.354       .  A
N2047      H2057   1.045       .  S
C2048      C2049   1.396       .  A
C2049      H2055   1.083       .  S
N2050      C2051   1.355       .  A
N2050      H2058   1.045       .  S
C2051      C2052   1.393       .  A
C2059      C2064   1.384       .  A
C2059      C2060   1.401       .  A
C2059      N2065   1.340       .  A
C2060      C2061   1.400       .  A
C2060      H2071   1.083       .  S
C2061      C2070   1.374       .  A
C2061      C2062   1.385       .  A
C2062      C2063   1.406       .  A
C2062      N2068   1.346       .  A
C2063      C2064   1.405       .  A
C2063      H2072   1.082       .  S
C2064      C2067   1.381       .  A
N2065      C2066   1.356       .  A
C2066      C2067   1.399       .  A
C2067      H2073   1.082       .  S
N2068      C2069   1.356       .  A
N2068      H2076   1.045       .  S
C2069      C2070   1.395       .  A
C2070      H2074   1.083       .  S
C2077      C2082   1.384       .  A
C2077      C2078   1.403       .  A
C2077      N2083   1.342       .  A
C2078      C2079   1.401       .  A
C2078      H2089   1.082       .  S
C2079      C2088   1.379       .  A
C2079      C2080   1.385       .  A
C2080      C2081   1.399       .  A
C2080      N2086   1.337       .  A
C2081      C2082   1.398       .  A
C2081      H2090   1.083       .  S
C2082      C2085   1.371       .  A
N2083      C2084   1.356       .  A
N2083      H2093   1.044       .  S
C2084      C2085   1.396       .  A
C2085      H2091   1.082       .  S
N2086      C2087   1.354       .  A
N2086      H2094   1.045       .  S
C2087      C2088   1.393       .  A
C2088      H2092   1.082       .  S
C2095      C2100   1.383       .  A
C2095      C2096   1.400       .  A
C2095      N2101   1.340       .  A
C2096      C2097   1.399       .  A
C2096      H2107   1.083       .  S
C2097      C2106   1.373       .  A
C2097      C2098   1.384       .  A
C2098      C2099   1.405       .  A
C2098      N2104   1.346       .  A
C2099      C2100   1.405       .  A
C2099      H2108   1.082       .  S
C2100      C2103   1.379       .  A
N2101      C2102   1.357       .  A
N2101      H2111   1.044       .  S
C2102      C2103   1.399       .  A
C2103      H2109   1.082       .  S
N2104      C2105   1.356       .  A
N2104      H2112   1.045       .  S
C2105      C2106   1.394       .  A
C2106      H2110   1.083       .  S
C2113      C2118   1.383       .  A
C2113      C2114   1.408       .  A
C2113      N2119   1.348       .  A
C2114      C2115   1.407       .  A
C2114      H2125   1.082       .  S
C2115      C2124   1.383       .  A
C2115      C2116   1.385       .  A
C2116      C2117   1.398       .  A
C2116      N2122   1.341       .  A
C2117      C2118   1.398       .  A
C2117      H2126   1.083       .  S
C2118      C2121   1.370       .  A
N2119      C2120   1.360       .  A
N2119      H2129   1.044       .  S
C2120      C2121   1.398       .  A
C2121      H2127   1.081       .  S
N2122      C2123   1.353       .  A
N2122      H2130   1.045       .  S
C2123      C2124   1.397       .  A
C2124      H2128   1.082       .  S
C2131      C2136   1.385       .  A
C2131      C2132   1.399       .  A
C2131      N2137   1.341       .  A
C2132      C2133   1.398       .  A
C2132      H2143   1.083       .  S
C2133      C2142   1.371       .  A
C2133      C2134   1.385       .  A
C2134      C2135   1.406       .  A
C2134      N2140   1.347       .  A
C2135      C2136   1.406       .  A
C2135      H2144   1.082       .  S
C2136      C2139   1.380       .  A
N2137      C2138   1.354       .  A
N2137      H2147   1.045       .  S
C2138      C2139   1.397       .  A
C2139      H2145   1.082       .  S
N2140      C2141   1.357       .  A
N2140      H2148   1.045       .  S
C2141      C2142   1.393       .  A
C2142      H2146   1.082       .  S
C2149      C2154   1.385       .  A
C2149      C2150   1.396       .  A
C2149      N2155   1.337       .  A
C2150      C2151   1.395       .  A
C2150      H2161   1.083       .  S
C2151      C2160   1.368       .  A
C2151      C2152   1.385       .  A
C2152      C2153   1.404       .  A
C2152      N2158   1.344       .  A
C2153      C2154   1.404       .  A
C2153      H2162   1.082       .  S
C2154      C2157   1.379       .  A
N2155      C2156   1.354       .  A
N2155      H2165   1.045       .  S
C2156      C2157   1.397       .  A
C2157      H2163   1.082       .  S
N2158      C2159   1.355       .  A
N2158      H2166   1.045       .  S
C2159      C2160   1.391       .  A
C2160      H2164   1.083       .  S
C2167      C2172   1.383       .  A
C2167      C2168   1.404       .  A
C2167      N2173   1.343       .  A
C2168      C2169   1.402       .  A
C2168      H2179   1.082       .  S
C2169      C2178   1.379       .  A
C2169      C2170   1.385       .  A
C2170      C2171   1.400       .  A
C2170      N2176   1.339       .  A
C2171      C2172   1.399       .  A
C2171      H2180   1.083       .  S
C2172      C2175   1.373       .  A
N2173      C2174   1.359       .  A
N2173      H2183   1.044       .  S
C2174      C2175   1.398       .  A
C2175      H2181   1.082       .  S
N2176      C2177   1.355       .  A
N2176      H2184   1.045       .  S
C2177      C2178   1.395       .  A
C2178      H2182   1.082       .  S
C2185      C2190   1.385       .  A
C2185      C2186   1.399       .  A
C2185      N2191   1.340       .  A
C2186      C2187   1.398       .  A
C2186      H2197   1.083       .  S
C2187      C2196   1.372       .  A
C2187      C2188   1.384       .  A
C2188      C2189   1.406       .  A
C2188      N2194   1.346       .  A
C2189      C2190   1.406       .  A
C2189      H2198   1.082       .  S
C2190      C2193   1.382       .  A
N2191      C2192   1.353       .  A
N2191      H2201   1.045       .  S
C2192      C2193   1.396       .  A
C2193      H2199   1.083   1_545  S
N2194      C2195   1.358       .  A
N2194      H2202   1.045       .  S
C2195      C2196   1.395       .  A
C2196      H2200   1.082       .  S
C2203      C2208   1.384       .  A
C2203      N2209   1.347       .  A
C2204      H2215   1.082       .  S
C2205      C2206   1.384       .  A
C2206      C2207   1.403       .  A
C2206      N2212   1.342       .  A
C2207      C2208   1.402       .  A
C2207      H2216   1.082       .  S
C2208      C2211   1.378       .  A
N2209      C2210   1.358       .  A
C2210      C2211   1.396       .  A
C2211      H2217   1.083       .  S
N2212      C2213   1.356       .  A
N2212      H2220   1.045       .  S
C2214      H2218   1.082       .  S
C2221      C2226   1.383       .  A
C2221      C2222   1.402       .  A
C2221      N2227   1.342       .  A
C2222      C2223   1.401       .  A
C2222      H2233   1.082       .  S
C2223      C2232   1.376       .  A
C2223      C2224   1.384       .  A
C2224      C2225   1.406       .  A
C2224      N2230   1.347       .  A
C2225      C2226   1.406       .  A
C2225      H2234   1.082       .  S
C2226      C2229   1.381       .  A
N2227      C2228   1.358       .  A
N2227      H2237   1.044       .  S
C2228      C2229   1.400       .  A
C2229      H2235   1.082       .  S
N2230      C2231   1.358       .  A
N2230      H2238   1.045       .  S
C2231      C2232   1.395       .  A
C2232      H2236   1.083       .  S
C2239      C2244   1.383       .  A
C2239      C2240   1.407       .  A
C2239      N2245   1.347       .  A
C2240      C2241   1.406       .  A
C2240      H2251   1.082   1_545  S
C2241      C2250   1.383   1_545  A
C2241      C2242   1.385       .  A
C2242      C2243   1.400       .  A
C2242      N2248   1.341       .  A
C2243      C2244   1.400       .  A
C2243      H2252   1.083   1_556  S
C2244      C2247   1.374   1_556  A
N2245      C2246   1.360       .  A
N2245      H2255   1.044       .  S
C2246      C2247   1.400   1_556  A
C2247      H2253   1.082       .  S
N2248      C2249   1.354       .  A
N2248      H2256   1.045       .  S
C2249      C2250   1.396   1_545  A
C2250      H2254   1.082       .  S
C2257      C2258   1.403       .  A
C2257      C2262   1.403       .  A
C2257      C2965   1.474       .  S
C2258      C2259   1.403       .  A
C2258      H2263   1.083       .  S
C2259      C2260   1.408       .  A
C2259      C2998   1.484       .  S
C2260      C2261   1.406       .  A
C2260      H2264   1.080       .  S
C2261      C2262   1.405       .  A
C2261      C2980   1.490       .  S
C2262      H2265   1.082       .  S
C2266      C2267   1.402       .  A
C2266      C2271   1.403       .  A
C2266      C2532   1.474       .  S
C2267      C2268   1.402       .  A
C2267      H2272   1.083       .  S
C2268      C2269   1.405       .  A
C2268      C2550   1.479       .  S
C2269      C2270   1.402       .  A
C2269      H2273   1.081       .  S
C2270      C2271   1.401       .  A
C2270      C2571   1.479       .  S
C2271      H2274   1.083       .  S
C2275      C2276   1.404       .  A
C2275      C2280   1.404       .  A
C2275      C2517   1.474       .  S
C2276      C2277   1.407       .  A
C2276      H2281   1.083       .  S
C2277      C2278   1.408       .  A
C2277      C2496   1.490       .  S
C2278      C2279   1.405       .  A
C2278      H2282   1.080       .  S
C2279      C2280   1.400       .  A
C2279      C2478   1.483       .  S
C2280      H2283   1.084       .  S
C2284      C2285   1.407       .  A
C2284      C2289   1.405       .  A
C2284      C2460   1.481       .  S
C2285      C2286   1.404       .  A
C2285      H2290   1.083       .  S
C2286      C2287   1.401       .  A
C2286      C2442   1.481       .  S
C2287      C2288   1.406       .  A
C2287      H2291   1.081       .  S
C2288      C2289   1.405       .  A
C2288      C2427   1.484       .  S
C2289      H2292   1.082       .  S
O2293     Zr2305   2.448   1_565  S
O2293      C2295   1.289       .  A
O2294     Zr2331   2.413       .  S
O2294      C2295   1.285       .  A
C2295      C2514   1.469       .  S
O2296     Zr2308   2.438       .  S
O2296      C2298   1.288       .  A
O2297      C2298   1.287       .  A
C2298      C2481   1.474       .  S
O2299     Zr2308   2.442       .  S
O2299      C2301   1.288       .  A
O2300     Zr2331   2.428   1_545  S
C2301      C2625   1.466       .  S
O2302     Zr2305   2.475       .  S
O2303      C2304   1.289       .  A
C2304      C2380   1.489       .  S
Zr2305     O2306   2.436       .  S
Zr2305     O2311   2.384       .  S
O2306      H2349   0.990       .  S
O2307      H2348   0.990       .  S
Zr2308     O2309   2.436       .  S
Zr2308     O2310   2.434       .  S
Zr2308     O2312   2.377       .  S
Zr2308     O2336   2.378       .  S
Zr2308     O2338   2.372       .  S
O2309      H2350   0.990       .  S
O2309      H2353   0.990       .  S
O2310      H2343   0.990       .  S
O2311     Zr2331   2.384   1_545  S
O2312      H2339   0.966       .  S
O2313     Zr2325   2.445       .  S
O2313      C2315   1.288       .  A
O2314      C2315   1.286   1_545  A
C2315      C2499   1.470       .  S
O2316     Zr2328   2.480   1_455  S
O2317     Zr2331   2.442       .  S
C2318      C2742   1.490       .  S
O2319     Zr2328   2.448       .  S
O2319      C2321   1.289       .  A
O2320     Zr2332   2.415   1_655  S
O2320      C2321   1.285       .  A
C2321      C2586   1.467       .  S
O2322     Zr2325   2.445       .  S
O2322      C2324   1.289       .  A
O2323      C2324   1.285   1_455  A
C2324      C2607   1.472       .  S
Zr2325     O2326   2.435       .  S
Zr2325     O2327   2.435       .  S
Zr2325     O2333   2.371   1_565  S
Zr2325     O2334   2.367       .  S
Zr2325     O2337   2.375   1_655  S
Zr2325     O2335   2.369   1_655  S
O2326      H2346   0.990       .  S
O2326      H2351   0.990       .  S
O2327      H2347   0.990       .  S
O2329      H2345   0.990       .  S
O2330      H2344   0.990       .  S
O2333      H2341   0.965       .  S
O2336      H2340   0.965       .  S
O2337      H2342   0.966       .  S
O2355     Zr2367   2.459       .  S
O2355      C2357   1.290       .  A
O2356     Zr2393   2.415       .  S
O2356      C2357   1.285       .  A
C2357      C2463   1.473       .  S
O2358     Zr2370   2.434       .  S
O2358      C2360   1.286       .  A
O2359      C2360   1.285       .  A
C2360      C2424   1.463       .  S
O2361     Zr2370   2.438       .  S
O2361      C2363   1.287       .  A
O2362     Zr2393   2.425   1_545  S
C2363      C2568   1.471       .  S
O2364     Zr2367   2.472       .  S
O2365     Zr2394   2.426       .  S
C2366      C2694   1.486   1_554  S
Zr2367     O2368   2.437       .  S
Zr2367     O2373   2.380       .  S
O2368      H2411   0.990       .  S
O2369      H2410   0.990       .  S
Zr2370     O2371   2.438       .  S
Zr2370     O2372   2.434       .  S
Zr2370     O2374   2.369       .  S
Zr2370     O2398   2.378       .  S
Zr2370     O2400   2.377       .  S
O2371      H2412   0.990       .  S
O2371      H2415   0.990       .  S
O2372      H2405   0.990       .  S
O2373     Zr2393   2.383       .  S
O2374      H2401   0.965       .  S
O2375     Zr2387   2.435       .  S
O2375      C2377   1.287       .  A
O2376      C2377   1.286       .  A
C2377      C2445   1.472       .  S
O2378     Zr2390   2.478   1_455  S
O2379     Zr2393   2.432   1_545  S
O2381     Zr2390   2.469       .  S
O2381      C2383   1.293       .  A
O2382     Zr2394   2.396       .  S
O2382      C2383   1.282       .  A
C2383      C2535   1.469       .  S
O2384     Zr2387   2.434       .  S
O2384      C2386   1.285       .  A
O2385      C2386   1.284   1_455  A
C2386      C2553   1.462       .  S
Zr2387     O2388   2.439       .  S
Zr2387     O2389   2.434       .  S
Zr2387     O2395   2.366       .  S
Zr2387     O2396   2.366       .  S
Zr2387     O2399   2.369       .  S
Zr2387     O2397   2.376       .  S
O2388      H2408   0.990       .  S
O2388      H2413   0.990       .  S
O2389      H2409   0.990       .  S
O2391      H2407   0.990       .  S
O2392      H2406   0.990       .  S
O2395      H2403   0.964       .  S
O2398      H2402   0.966       .  S
O2399      H2404   0.967       .  S
C2417      C2422   1.386       .  A
C2417      C2418   1.398       .  A
C2417      N2423   1.339       .  A
C2418      C2419   1.398       .  A
C2418      H2805   1.083       .  S
C2419      C2428   1.372       .  A
C2419      C2420   1.383       .  A
C2420      C2421   1.406       .  A
C2420      N2426   1.344       .  A
C2421      C2422   1.404       .  A
C2421      H2430   1.082       .  S
C2422      C2425   1.381       .  A
N2423      C2424   1.353       .  A
N2423      H2433   1.045       .  S
C2424      C2425   1.395       .  A
C2425      H2431   1.083       .  S
N2426      C2427   1.359       .  A
N2426      H2434   1.044       .  S
C2427      C2428   1.397       .  A
C2428      H2808   1.082       .  S
H2429      C2794   1.082       .  S
H2432      C2804   1.082       .  S
C2435      C2440   1.384       .  A
C2435      C2436   1.402       .  A
C2435      N2441   1.342       .  A
C2436      C2437   1.401       .  A
C2436      H2447   1.083       .  S
C2437      C2446   1.375       .  A
C2437      C2438   1.384       .  A
C2438      C2439   1.404       .  A
C2438      N2444   1.345       .  A
C2439      C2440   1.404       .  A
C2439      H2448   1.082       .  S
C2440      C2443   1.379       .  A
N2441      C2442   1.357       .  A
N2441      H2827   1.045       .  S
C2442      C2443   1.397       .  A
C2443      H2449   1.082       .  S
N2444      C2445   1.356       .  A
N2444      H2452   1.045       .  S
C2445      C2446   1.395       .  A
C2446      H2450   1.083       .  S
H2451      N2817   1.044       .  S
C2453      C2458   1.383       .  A
C2453      C2454   1.408       .  A
C2453      N2459   1.345       .  A
C2454      C2455   1.407       .  A
C2454      H2465   1.082       .  S
C2455      C2464   1.385       .  A
C2455      C2456   1.384       .  A
C2456      C2457   1.401       .  A
C2456      N2462   1.339       .  A
C2457      C2458   1.399       .  A
C2457      H2466   1.082       .  S
C2458      C2461   1.376       .  A
N2459      C2460   1.358       .  A
N2459      H2469   1.044       .  S
C2460      C2461   1.395       .  A
C2461      H2467   1.082       .  S
N2462      C2463   1.354       .  A
N2462      H2470   1.045       .  S
C2463      C2464   1.398       .  A
C2464      H2468   1.082       .  S
C2471      C2476   1.384       .  A
C2471      C2472   1.398       .  A
C2471      N2477   1.339       .  A
C2472      C2473   1.397       .  A
C2472      H2483   1.082       .  S
C2473      C2482   1.372       .  A
C2473      C2474   1.384       .  A
C2474      C2475   1.409       .  A
C2474      N2480   1.348       .  A
C2475      C2476   1.409       .  A
C2475      H2484   1.082       .  S
C2476      C2479   1.384       .  A
N2477      C2478   1.354       .  A
N2477      H2487   1.044       .  S
C2478      C2479   1.401       .  A
C2479      H2485   1.082       .  S
N2480      C2481   1.359       .  A
N2480      H2488   1.045       .  S
C2481      C2482   1.393       .  A
C2482      H2486   1.083       .  S
C2489      C2494   1.383       .  A
C2489      C2490   1.405       .  A
C2489      N2495   1.345       .  A
C2490      C2491   1.403       .  A
C2490      H2501   1.082       .  S
C2491      C2500   1.379       .  A
C2491      C2492   1.385       .  A
C2492      C2493   1.402       .  A
C2492      N2498   1.343       .  A
C2493      C2494   1.402       .  A
C2493      H2502   1.083       .  S
C2494      C2497   1.376       .  A
N2495      C2496   1.359       .  A
N2495      H2505   1.044       .  S
C2496      C2497   1.400       .  A
C2497      H2503   1.082       .  S
N2498      C2499   1.355       .  A
N2498      H2506   1.045       .  S
C2499      C2500   1.394       .  A
C2500      H2504   1.083   1_565  S
C2507      C2512   1.385       .  A
C2507      C2508   1.399       .  A
C2507      N2513   1.340       .  A
C2508      C2509   1.398       .  A
C2508      H2519   1.082       .  S
C2509      C2518   1.373       .  A
C2509      C2510   1.385       .  A
C2510      C2511   1.406       .  A
C2510      N2516   1.345       .  A
C2511      C2512   1.405       .  A
C2511      H2520   1.082       .  S
C2512      C2515   1.381       .  A
N2513      C2514   1.354       .  A
N2513      H2523   1.045       .  S
C2514      C2515   1.397       .  A
C2515      H2521   1.082       .  S
N2516      C2517   1.356       .  A
N2516      H2524   1.045       .  S
C2517      C2518   1.393       .  A
C2518      H2522   1.082       .  S
C2525      C2530   1.385       .  A
C2525      C2526   1.399       .  A
C2525      N2531   1.340       .  A
C2526      C2527   1.399       .  A
C2526      H2537   1.083       .  S
C2527      C2536   1.371       .  A
C2527      C2528   1.385       .  A
C2528      C2529   1.403       .  A
C2528      N2534   1.346       .  A
C2529      C2530   1.403       .  A
C2529      H2538   1.082       .  S
C2530      C2533   1.377       .  A
N2531      C2532   1.355       .  A
N2531      H2541   1.045       .  S
C2532      C2533   1.396       .  A
C2533      H2539   1.082       .  S
N2534      C2535   1.355       .  A
N2534      H2542   1.045       .  S
C2535      C2536   1.395       .  A
C2536      H2540   1.083       .  S
C2543      C2548   1.384       .  A
C2543      C2544   1.403       .  A
C2543      N2549   1.342       .  A
C2544      C2545   1.402       .  A
C2544      H2555   1.083       .  S
C2545      C2554   1.379       .  A
C2545      C2546   1.386       .  A
C2546      C2547   1.399       .  A
C2546      N2552   1.339       .  A
C2547      C2548   1.398       .  A
C2547      H2556   1.083       .  S
C2548      C2551   1.373       .  A
N2549      C2550   1.357       .  A
N2549      H2559   1.044       .  S
C2550      C2551   1.396       .  A
C2551      H2557   1.082       .  S
N2552      C2553   1.353       .  A
N2552      H2560   1.045       .  S
C2553      C2554   1.394       .  A
C2554      H2558   1.083       .  S
C2561      C2566   1.385       .  A
C2561      C2562   1.402       .  A
C2561      N2567   1.341       .  A
C2562      C2563   1.400       .  A
C2562      H2573   1.082       .  S
C2563      C2572   1.375       .  A
C2563      C2564   1.384       .  A
C2564      C2565   1.404       .  A
C2564      N2570   1.343       .  A
C2565      C2566   1.403       .  A
C2565      H2574   1.082       .  S
C2566      C2569   1.379       .  A
N2567      C2568   1.356       .  A
N2567      H2577   1.045       .  S
C2568      C2569   1.396       .  A
C2569      H2575   1.082       .  S
N2570      C2571   1.357       .  A
N2570      H2578   1.044       .  S
C2571      C2572   1.396       .  A
C2572      H2576   1.082       .  S
C2579      C2584   1.385       .  A
C2579      C2956   1.404       .  A
C2579      N2585   1.345       .  A
C2580      C2955   1.406       .  A
C2580      C2957   1.405       .  A
C2580      H2591   1.082   1_556  S
C2581      C2956   1.404       .  A
C2581      C2966   1.379       .  A
C2581      C2582   1.384       .  A
C2582      C2583   1.401       .  A
C2582      N2588   1.341       .  A
C2583      C2584   1.400       .  A
C2583      H2592   1.082       .  S
C2584      C2587   1.374       .  A
N2585      C2586   1.356       .  A
N2585      H2971   1.045       .  S
C2586      C2587   1.393       .  A
C2587      H2593   1.083       .  S
N2588      C2589   1.356       .  A
N2588      H2596   1.045       .  S
C2589      C2966   1.397       .  A
C2589      C2633   1.478       .  S
C2590      C2957   1.380       .  A
C2590      C2965   1.396       .  A
C2590      H2594   1.082   1_556  S
H2595      N2961   1.045       .  S
C2597      C2602   1.383       .  A
C2597      C2598   1.398       .  A
C2597      N2603   1.338       .  A
C2598      C2599   1.397       .  A
C2598      H2609   1.083       .  S
C2599      C2608   1.372       .  A
C2599      C2600   1.384       .  A
C2600      C2601   1.408       .  A
C2600      N2606   1.347       .  A
C2601      C2602   1.407       .  A
C2601      H2610   1.082       .  S
C2602      C2605   1.383       .  A
N2603      C2604   1.356       .  A
N2603      H2613   1.044       .  S
C2604      C2605   1.400       .  A
C2604      C2637   1.483       .  S
C2605      H2611   1.082       .  S
N2606      C2607   1.359       .  A
N2606      H2614   1.045   1_655  S
C2607      C2608   1.393       .  A
C2608      H2612   1.083       .  S
C2615      C2620   1.382       .  A
C2615      C2616   1.407       .  A
C2615      N2621   1.346       .  A
C2616      C2617   1.406       .  A
C2616      H2627   1.082       .  S
C2617      C2626   1.382       .  A
C2617      C2618   1.385       .  A
C2618      C2619   1.398       .  A
C2618      N2624   1.339       .  A
C2619      C2620   1.398       .  A
C2619      H2628   1.083       .  S
C2620      C2623   1.370       .  A
N2621      C2622   1.360       .  A
N2621      H2631   1.044       .  S
C2622      C2623   1.398       .  A
C2622      C2635   1.487       .  S
C2623      H2629   1.081       .  S
N2624      C2625   1.352       .  A
N2624      H2632   1.045       .  S
C2625      C2626   1.396       .  A
C2626      H2630   1.082       .  S
C2633      C2634   1.406       .  A
C2633      C2638   1.406       .  A
C2634      C2635   1.405       .  A
C2634      H2639   1.082       .  S
C2635      C2636   1.405       .  A
C2636      C2637   1.401       .  A
C2636      H2640   1.079       .  S
C2637      C2638   1.402       .  A
C2638      H2641   1.083       .  S
C2642      C2643   1.404       .  A
C2642      C2647   1.407       .  A
C2642      C2908   1.477       .  S
C2643      C2644   1.399       .  A
C2643      H2648   1.083       .  S
C2644      C2645   1.400       .  A
C2644      C2926   1.475       .  S
C2645      C2646   1.403       .  A
C2645      H2649   1.081       .  S
C2646      C2647   1.406       .  A
C2646      C2947   1.484       .  S
C2647      H2650   1.083       .  S
C2651      C2652   1.404       .  A
C2651      C2656   1.405       .  A
C2651      C2893   1.472       .  S
C2652      C2653   1.405       .  A
C2652      H2657   1.083       .  S
C2653      C2654   1.405       .  A
C2653      C2872   1.486       .  S
C2654      C2655   1.402       .  A
C2654      H2658   1.080       .  S
C2655      C2656   1.400       .  A
C2655      C2854   1.480       .  S
C2656      H2659   1.083       .  S
C2660      C2661   1.402       .  A
C2660      C2665   1.402       .  A
C2660      C2836   1.471       .  S
C2661      C2662   1.407       .  A
C2661      H2666   1.084       .  S
C2662      C2663   1.407       .  A
C2662      C2818   1.481       .  S
C2663      C2664   1.404       .  A
C2663      H2667   1.082       .  S
C2664      C2665   1.400       .  A
C2664      C2803   1.480       .  S
C2665      H2668   1.084       .  S
O2669     Zr2681   2.451       .  S
O2669      C2671   1.289       .  A
O2670     Zr2707   2.408       .  S
O2670      C2671   1.284       .  A
C2671      C2890   1.466       .  S
O2672     Zr2684   2.439       .  S
O2672      C2674   1.288       .  A
O2673      C2674   1.285       .  A
C2674      C2857   1.468       .  S
O2675     Zr2684   2.456       .  S
O2675      C2677   1.290       .  A
O2676     Zr2707   2.427       .  S
C2677      C3001   1.465       .  S
O2678     Zr2681   2.475       .  S
O2679      C2680   1.288       .  A
C2680      C2756   1.489       .  S
Zr2681     O2682   2.434       .  S
Zr2681     O2687   2.384       .  S
O2682      H2725   0.990       .  S
O2683      H2724   0.990       .  S
Zr2684     O2685   2.436       .  S
Zr2684     O2686   2.437       .  S
Zr2684     O2688   2.371       .  S
Zr2684     O2712   2.362       .  S
Zr2684     O2714   2.374       .  S
O2685      H2726   0.990       .  S
O2685      H2729   0.990       .  S
O2686      H2719   0.990       .  S
O2687     Zr2707   2.388       .  S
O2688      H2715   0.966       .  S
O2689     Zr2701   2.436       .  S
O2689      C2691   1.286       .  A
O2690      C2691   1.287       .  A
C2691      C2875   1.471       .  S
O2692     Zr2704   2.471       .  S
O2693     Zr2707   2.436       .  S
O2695     Zr2704   2.459       .  S
O2695      C2697   1.290       .  A
O2696     Zr2708   2.411       .  S
O2696      C2697   1.284       .  A
C2697      C2962   1.471       .  S
O2698     Zr2701   2.439       .  S
O2698      C2700   1.287       .  A
O2699      C2700   1.285       .  A
C2700      C2983   1.471       .  S
Zr2701     O2702   2.437       .  S
Zr2701     O2703   2.435       .  S
Zr2701     O2709   2.370       .  S
Zr2701     O2710   2.376       .  S
Zr2701     O2713   2.375       .  S
Zr2701     O2711   2.374       .  S
O2702      H2722   0.990       .  S
O2702      H2727   0.990       .  S
O2703      H2723   0.990       .  S
O2705      H2721   0.990       .  S
O2706      H2720   0.990   1_556  S
O2709      H2717   0.965       .  S
O2712      H2716   0.964       .  S
O2713      H2718   0.967       .  S
O2731     Zr2743   2.455       .  S
O2731      C2733   1.290       .  A
O2732     Zr2769   2.402       .  S
O2732      C2733   1.283       .  A
C2733      C2839   1.470       .  S
O2734     Zr2746   2.436       .  S
O2734      C2736   1.287       .  A
O2735      C2736   1.287       .  A
C2736      C2800   1.472       .  S
O2737     Zr2746   2.430       .  S
O2737      C2739   1.285       .  A
O2738     Zr2769   2.426       .  S
C2739      C2944   1.468       .  S
O2740     Zr2743   2.467       .  S
O2741     Zr2770   2.438       .  S
Zr2743     O2744   2.435   1_565  S
Zr2743     O2749   2.379       .  S
O2744      H2787   0.990   1_545  S
O2745      H2786   0.990   1_455  S
Zr2746     O2747   2.438       .  S
Zr2746     O2748   2.435       .  S
Zr2746     O2750   2.371       .  S
Zr2746     O2774   2.373       .  S
Zr2746     O2776   2.369       .  S
O2747      H2788   0.990       .  S
O2747      H2791   0.990       .  S
O2748      H2781   0.990       .  S
O2749     Zr2769   2.382       .  S
O2750      H2777   0.966       .  S
O2751     Zr2763   2.429       .  S
O2751      C2753   1.286       .  A
O2752      C2753   1.286       .  A
C2753      C2821   1.468       .  S
O2754     Zr2766   2.477       .  S
O2755     Zr2769   2.432       .  S
O2757     Zr2766   2.452       .  S
O2757      C2759   1.289       .  A
O2758     Zr2770   2.404       .  S
O2758      C2759   1.283       .  A
C2759      C2911   1.465       .  S
O2760     Zr2763   2.437       .  S
O2760      C2762   1.287       .  A
O2761      C2762   1.284       .  A
C2762      C2929   1.467       .  S
Zr2763     O2764   2.438       .  S
Zr2763     O2765   2.436       .  S
Zr2763     O2771   2.368       .  S
Zr2763     O2772   2.370       .  S
Zr2763     O2775   2.365       .  S
Zr2763     O2773   2.374       .  S
O2764      H2784   0.990       .  S
O2764      H2789   0.990       .  S
O2765      H2785   0.990       .  S
O2767      H2783   0.990       .  S
O2768      H2782   0.990       .  S
O2771      H2779   0.965       .  S
O2774      H2778   0.966       .  S
O2775      H2780   0.966       .  S
C2793      C2798   1.384       .  A
C2793      C2794   1.402       .  A
C2793      N2799   1.341       .  A
C2794      C2795   1.401       .  A
C2795      C2804   1.377       .  A
C2795      C2796   1.384       .  A
C2796      C2797   1.405       .  A
C2796      N2802   1.343       .  A
C2797      C2798   1.403       .  A
C2797      H2806   1.082       .  S
C2798      C2801   1.381       .  A
N2799      C2800   1.356       .  A
N2799      H2809   1.045       .  S
C2800      C2801   1.397       .  A
C2801      H2807   1.082       .  S
N2802      C2803   1.357       .  A
N2802      H2810   1.044       .  S
C2803      C2804   1.396       .  A
C2811      C2816   1.384       .  A
C2811      C2812   1.400       .  A
C2811      N2817   1.342       .  A
C2812      C2813   1.400       .  A
C2812      H2823   1.083       .  S
C2813      C2822   1.373       .  A
C2813      C2814   1.385       .  A
C2814      C2815   1.404       .  A
C2814      N2820   1.346       .  A
C2815      C2816   1.404       .  A
C2815      H2824   1.082       .  S
C2816      C2819   1.378       .  A
N2817      C2818   1.356       .  A
C2818      C2819   1.397       .  A
C2819      H2825   1.082       .  S
N2820      C2821   1.355       .  A
N2820      H2828   1.045       .  S
C2821      C2822   1.394       .  A
C2822      H2826   1.083       .  S
C2829      C2834   1.385       .  A
C2829      C2830   1.409       .  A
C2829      N2835   1.347       .  A
C2830      C2831   1.408       .  A
C2830      H2841   1.082       .  S
C2831      C2840   1.386       .  A
C2831      C2832   1.385       .  A
C2832      C2833   1.397       .  A
C2832      N2838   1.336       .  A
C2833      C2834   1.395       .  A
C2833      H2842   1.083       .  S
C2834      C2837   1.370       .  A
N2835      C2836   1.357       .  A
N2835      H2845   1.045       .  S
C2836      C2837   1.390       .  A
C2837      H2843   1.083       .  S
N2838      C2839   1.353       .  A
N2838      H2846   1.045       .  S
C2839      C2840   1.399       .  A
C2840      H2844   1.082       .  S
C2847      C2852   1.384       .  A
C2847      C2848   1.398       .  A
C2847      N2853   1.337       .  A
C2848      C2849   1.396       .  A
C2848      H2859   1.083       .  S
C2849      C2858   1.371       .  A
C2849      C2850   1.384       .  A
C2850      C2851   1.407       .  A
C2850      N2856   1.345       .  A
C2851      C2852   1.406       .  A
C2851      H2860   1.082       .  S
C2852      C2855   1.382       .  A
N2853      C2854   1.355       .  A
N2853      H2863   1.044       .  S
C2854      C2855   1.400       .  A
C2855      H2861   1.082       .  S
N2856      C2857   1.357       .  A
N2856      H2864   1.045       .  S
C2857      C2858   1.392       .  A
C2858      H2862   1.083       .  S
C2865      C2870   1.382       .  A
C2865      C2866   1.407       .  A
C2865      N2871   1.345       .  A
C2866      C2867   1.406       .  A
C2866      H2877   1.082       .  S
C2867      C2876   1.384       .  A
C2867      C2868   1.385       .  A
C2868      C2869   1.400       .  A
C2868      N2874   1.340       .  A
C2869      C2870   1.399       .  A
C2869      H2878   1.083       .  S
C2870      C2873   1.373       .  A
N2871      C2872   1.359       .  A
N2871      H2881   1.044       .  S
C2872      C2873   1.398       .  A
C2873      H2879   1.082       .  S
N2874      C2875   1.354       .  A
N2874      H2882   1.045       .  S
C2875      C2876   1.397       .  A
C2876      H2880   1.082       .  S
C2883      C2888   1.385       .  A
C2883      C2884   1.398       .  A
C2883      N2889   1.339       .  A
C2884      C2885   1.397       .  A
C2884      H2895   1.082       .  S
C2885      C2894   1.371       .  A
C2885      C2886   1.385       .  A
C2886      C2887   1.406       .  A
C2886      N2892   1.345       .  A
C2887      C2888   1.405       .  A
C2887      H2896   1.082       .  S
C2888      C2891   1.381       .  A
N2889      C2890   1.353       .  A
N2889      H2899   1.045       .  S
C2890      C2891   1.396       .  A
C2891      H2897   1.082       .  S
N2892      C2893   1.357       .  A
N2892      H2900   1.045       .  S
C2893      C2894   1.392       .  A
C2894      H2898   1.082       .  S
C2901      C2906   1.384       .  A
C2901      C2902   1.399       .  A
C2901      N2907   1.340       .  A
C2902      C2903   1.398       .  A
C2902      H2913   1.083       .  S
C2903      C2912   1.371       .  A
C2903      C2904   1.385       .  A
C2904      C2905   1.404       .  A
C2904      N2910   1.345       .  A
C2905      C2906   1.404       .  A
C2905      H2914   1.082       .  S
C2906      C2909   1.378       .  A
N2907      C2908   1.356       .  A
N2907      H2917   1.045       .  S
C2908      C2909   1.397       .  A
C2909      H2915   1.082       .  S
N2910      C2911   1.355       .  A
N2910      H2918   1.045       .  S
C2911      C2912   1.393       .  A
C2912      H2916   1.083       .  S
C2919      C2924   1.384       .  A
C2919      C2920   1.403       .  A
C2919      N2925   1.344       .  A
C2920      C2921   1.403       .  A
C2920      H2931   1.082       .  S
C2921      C2930   1.377       .  A
C2921      C2922   1.385       .  A
C2922      C2923   1.399       .  A
C2922      N2928   1.340       .  A
C2923      C2924   1.398       .  A
C2923      H2932   1.083       .  S
C2924      C2927   1.371       .  A
N2925      C2926   1.357       .  A
N2925      H2935   1.045       .  S
C2926      C2927   1.394       .  A
C2927      H2933   1.082       .  S
N2928      C2929   1.354       .  A
N2928      H2936   1.045       .  S
C2929      C2930   1.396       .  A
C2930      H2934   1.082       .  S
C2937      C2942   1.385       .  A
C2937      C2938   1.401       .  A
C2937      N2943   1.339       .  A
C2938      C2939   1.399       .  A
C2938      H2949   1.083       .  S
C2939      C2948   1.374       .  A
C2939      C2940   1.383       .  A
C2940      C2941   1.406       .  A
C2940      N2946   1.344       .  A
C2941      C2942   1.404       .  A
C2941      H2950   1.082       .  S
C2942      C2945   1.383       .  A
N2943      C2944   1.354       .  A
N2943      H2953   1.045       .  S
C2944      C2945   1.396       .  A
C2945      H2951   1.083       .  S
N2946      C2947   1.358       .  A
N2946      H2954   1.044       .  S
C2947      C2948   1.398       .  A
C2948      H2952   1.082       .  S
C2955      C2960   1.385       .  A
C2955      N2961   1.346       .  A
C2956      H2967   1.082       .  S
C2957      C2958   1.385       .  A
C2958      C2959   1.400       .  A
C2958      N2964   1.341       .  A
C2959      C2960   1.400       .  A
C2959      H2968   1.083       .  S
C2960      C2963   1.373       .  A
N2961      C2962   1.357       .  A
C2962      C2963   1.394       .  A
C2963      H2969   1.083       .  S
N2964      C2965   1.354       .  A
N2964      H2972   1.045       .  S
C2966      H2970   1.082       .  S
C2973      C2978   1.383       .  A
C2973      C2974   1.401       .  A
C2973      N2979   1.342       .  A
C2974      C2975   1.400       .  A
C2974      H2985   1.082       .  S
C2975      C2984   1.374       .  A
C2975      C2976   1.384       .  A
C2976      C2977   1.405       .  A
C2976      N2982   1.346       .  A
C2977      C2978   1.405       .  A
C2977      H2986   1.082       .  S
C2978      C2981   1.378       .  A
N2979      C2980   1.359       .  A
N2979      H2989   1.044       .  S
C2980      C2981   1.401       .  A
C2981      H2987   1.082       .  S
N2982      C2983   1.357       .  A
N2982      H2990   1.045       .  S
C2983      C2984   1.394       .  A
C2984      H2988   1.083       .  S
C2991      C2996   1.384       .  A
C2991      C2992   1.407       .  A
C2991      N2997   1.346       .  A
C2992      C2993   1.405       .  A
C2992      H3003   1.083       .  S
C2993      C3002   1.381       .  A
C2993      C2994   1.386       .  A
C2994      C2995   1.399       .  A
C2994      N3000   1.340       .  A
C2995      C2996   1.398       .  A
C2995      H3004   1.083   1_556  S
C2996      C2999   1.373   1_556  A
N2997      C2998   1.359       .  A
N2997      H3007   1.044       .  S
C2998      C2999   1.396   1_556  A
C2999      H3005   1.082       .  S
N3000      C3001   1.352       .  A
N3000      H3008   1.045       .  S
C3001      C3002   1.395       .  A
C3002      H3006   1.083       .  S
