geometry optimzed in LAMMPS
_audit_creation_date              2020-12-01 
_audit_creation_method            'lammps2cif' 
_symmetry_space_group_name_H-M    'P1' 
_symmetry_Int_Tables_number       1 
_symmetry_cell_setting            triclinic 
loop_ 
_symmetry_equiv_pos_as_xyz 
  x,y,z 
_cell_length_a                    39.24467622 
_cell_length_b                    38.99579112804723 
_cell_length_c                    39.01442785961476 
_cell_angle_alpha                 89.9563936292578 
_cell_angle_beta                  89.92126255356516 
_cell_angle_gamma                 89.88874339272782 
loop_ 
_atom_site_label 
_atom_site_type_symbol 
_atom_site_fract_x 
_atom_site_fract_y 
_atom_site_fract_z 
_atom_site_charge 
C1          C  0.18152755  0.81111844  0.47243368     0.03900
C2          C  0.19203914  0.79748358  0.50383147    -0.12200
C3          C  0.17853494  0.80987763  0.53457104     0.01400
C4          C  0.15456001  0.83651950  0.53401783    -0.10800
C5          C  0.14341010  0.85040647  0.50258631     0.03900
C6          C  0.15695823  0.83730584  0.47177533    -0.10200
H7          H  0.21102891  0.77724231  0.50436458     0.09500
H8          H  0.14482117  0.84637121  0.55807856     0.07000
H9          H  0.14840009  0.84724587  0.44731811     0.06900
C10         C  0.96739765  0.04900430  0.47150158     0.03900
C11         C  0.95396126  0.06103802  0.50239446    -0.12200
C12         C  0.96403062  0.04661333  0.53355851     0.01400
C13         C  0.98781630  0.01965684  0.53380038    -0.10800
C14         C  0.00171206  0.00729756  0.50274108     0.03900
C15         C  0.99104830  0.02209630  0.47161635    -0.10200
H16         H  0.93494985  0.08127054  0.50212721     0.09500
H17         H  0.99521242  0.00835459  0.55805470     0.07000
H18         H  0.00059757  0.01244096  0.44739870     0.06900
C19         C  0.95441036  0.82438524  0.45764259     0.03900
C20         C  0.98155730  0.84779459  0.46016471    -0.12200
C21         C  0.99439225  0.85742478  0.49262186     0.01400
C22         C  0.98006788  0.84252098  0.52225346    -0.10800
C23         C  0.95361585  0.81852468  0.51962997     0.03900
C24         C  0.94070622  0.80990116  0.48745784    -0.10200
H25         H  0.99217034  0.85874794  0.43697612     0.09500
H26         H  0.98969194  0.84909399  0.54741407     0.07000
H27         H  0.92017695  0.79141762  0.48557218     0.06900
C28         C  0.53979828  0.81223245  0.11100734     0.03900
C29         C  0.57107297  0.79851034  0.12125892    -0.12200
C30         C  0.60172078  0.81182672  0.10876481     0.01400
C31         C  0.60097516  0.83849270  0.08460199    -0.10800
C32         C  0.56967397  0.85269003  0.07361596     0.03900
C33         C  0.53902327  0.83920213  0.08701836    -0.10200
H34         H  0.57157588  0.77782030  0.13985589     0.09500
H35         H  0.62480964  0.84804532  0.07439599     0.07000
H36         H  0.51469593  0.84980539  0.07925496     0.06900
C37         C  0.95386318  0.46334720  0.10454792     0.03900
C38         C  0.94177131  0.43306335  0.11915478    -0.12200
C39         C  0.95373441  0.40129918  0.10788118     0.01400
C40         C  0.97888856  0.39972642  0.08237630    -0.10800
C41         C  0.99171701  0.43007937  0.06765805     0.03900
C42         C  0.97903364  0.46198782  0.07908085    -0.10200
H43         H  0.92279137  0.43423387  0.13936750     0.09500
H44         H  0.98824913  0.37492771  0.07407665     0.07000
H45         H  0.98848200  0.48572867  0.06824033     0.06900
C46         C  0.95831258  0.46118111  0.87802429     0.03900
C47         C  0.98234329  0.45966313  0.90440337    -0.12200
C48         C  0.99562411  0.42789432  0.91529682     0.01400
C49         C  0.98457508  0.39760323  0.89873951    -0.10800
C50         C  0.96103254  0.39948467  0.87153470     0.03900
C51         C  0.94811678  0.43128866  0.86151693    -0.10200
H52         H  0.99002933  0.48326577  0.91679373     0.09500
H53         H  0.99391148  0.37278861  0.90700117     0.07000
H54         H  0.92914473  0.43268945  0.84135148     0.06900
C55         C  0.54533898  0.06673497  0.91354812     0.03900
C56         C  0.54454371  0.03311489  0.92709569    -0.12200
C57         C  0.57454785  0.01699674  0.93883307     0.01400
C58         C  0.60621909  0.03225943  0.93129093    -0.10800
C59         C  0.60755774  0.06496164  0.91646635     0.03900
C60         C  0.57731234  0.08298633  0.91115694    -0.10200
H61         H  0.52088210  0.01916571  0.92842682     0.09500
H62         H  0.62978813  0.01871753  0.93645054     0.07000
H63         H  0.57937850  0.10895924  0.90177870     0.06900
C64         C  0.18059847  0.39556936  0.88182273     0.03900
C65         C  0.15544912  0.39505110  0.90733283    -0.12200
C66         C  0.14251547  0.42599837  0.92061948     0.01400
C67         C  0.15544951  0.45733584  0.90827165    -0.10800
C68         C  0.18057037  0.45767451  0.88282567     0.03900
C69         C  0.19331698  0.42683777  0.86996150    -0.10200
H70         H  0.14594785  0.37063693  0.91649979     0.09500
H71         H  0.14584020  0.48151328  0.91800392     0.07000
H72         H  0.21304742  0.42717499  0.85046460     0.06900
C73         C  0.53796575  0.82828706  0.88264163     0.03900
C74         C  0.56872829  0.81442128  0.87122262    -0.12200
C75         C  0.59948716  0.82401515  0.88625095     0.01400
C76         C  0.59973224  0.84858150  0.91241776    -0.10800
C77         C  0.56896310  0.86284859  0.92450919     0.03900
C78         C  0.53792526  0.85219404  0.90959704    -0.10200
H79         H  0.56868456  0.79550527  0.85083853     0.09500
H80         H  0.62389030  0.85644171  0.92324196     0.07000
H81         H  0.51386460  0.86225703  0.91883374     0.06900
C82         C  0.04327064  0.32732239  0.37983696     0.03900
C83         C  0.07477497  0.31849063  0.36571777    -0.12200
C84         C  0.10503648  0.33058621  0.37997711     0.01400
C85         C  0.10392803  0.35210338  0.40879015    -0.10800
C86         C  0.07237938  0.36200584  0.42322134     0.03900
C87         C  0.04198516  0.34913918  0.40857049    -0.10200
H88         H  0.07580500  0.30098810  0.34412764     0.09500
H89         H  0.12764015  0.36081028  0.41995255     0.07000
H90         H  0.01746595  0.35567643  0.41956945     0.06900
C91         C  0.28914135  0.19626969  0.22742614     0.03100
C92         C  0.27704739  0.18394893  0.25936888     0.03100
C93         C  0.29018513  0.15300505  0.27337187     0.03100
C94         C  0.31873355  0.13709990  0.25727170     0.03100
C95         C  0.33240011  0.15127358  0.22642970     0.03100
C96         C  0.31857126  0.18180523  0.21232622     0.03100
C97         C  0.44890726  0.89456983  0.38730996     0.03900
C98         C  0.43655939  0.92557535  0.37437867    -0.12200
C99         C  0.45051444  0.95670038  0.38478675     0.01400
C100        C  0.47611928  0.95715139  0.40980712    -0.10800
C101        C  0.48875712  0.92615838  0.42353296     0.03900
C102        C  0.47529532  0.89478898  0.41159614    -0.10200
H103        H  0.41654469  0.92543749  0.35521481     0.09500
H104        H  0.48643946  0.98154098  0.41801908     0.07000
H105        H  0.48521768  0.87059765  0.42096979     0.06900
C106        C  0.32461701  0.71191653  0.25725613     0.03100
C107        C  0.29703135  0.69471820  0.27329328     0.03100
C108        C  0.28322936  0.66469375  0.25830755     0.03100
C109        C  0.29505375  0.65374503  0.22572320     0.03100
C110        C  0.32435219  0.66917886  0.21103646     0.03100
C111        C  0.33804317  0.69931193  0.22589744     0.03100
C112        C  0.85798895  0.19164993  0.26256567     0.03100
C113        C  0.84212234  0.16334623  0.27871859     0.03100
C114        C  0.80946956  0.15226723  0.26772858     0.03100
C115        C  0.79484632  0.16656389  0.23774495     0.03100
C116        C  0.81063590  0.19494274  0.22173602     0.03100
C117        C  0.84296855  0.20628555  0.23302620     0.03100
C118        C  0.67667464  0.90255816  0.37549951     0.03900
C119        C  0.65146059  0.90069621  0.40099817    -0.12200
C120        C  0.63696714  0.93084704  0.41461378     0.01400
C121        C  0.64816787  0.96290935  0.40223057    -0.10800
C122        C  0.67272362  0.96470828  0.37619039     0.03900
C123        C  0.68626118  0.93451213  0.36246992    -0.10200
H124        H  0.64396189  0.87582259  0.41080194     0.09500
H125        H  0.63852107  0.98649149  0.41327936     0.07000
H126        H  0.70537209  0.93599333  0.34242913     0.06900
C127        C  0.78189569  0.68397375  0.23944949     0.03100
C128        C  0.79694350  0.70087637  0.26774688     0.03100
C129        C  0.82967672  0.69079573  0.27923409     0.03100
C130        C  0.84471589  0.66017010  0.26688420     0.03100
C131        C  0.82916233  0.64224599  0.23940430     0.03100
C132        C  0.79750936  0.65398670  0.22595033     0.03100
C133        C  0.03770419  0.55036191  0.39862034     0.03900
C134        C  0.06857236  0.56237127  0.38548189    -0.12200
C135        C  0.09951253  0.54864442  0.39662775     0.01400
C136        C  0.09966695  0.52225472  0.42106808    -0.10800
C137        C  0.06877521  0.50963712  0.43463918     0.03900
C138        C  0.03772443  0.52388332  0.42306397    -0.10200
H139        H  0.06849515  0.58222679  0.36598810     0.09500
H140        H  0.12381208  0.51138550  0.42904989     0.07000
H141        H  0.01363790  0.51422499  0.43258312     0.06900
C142        C  0.45415802  0.31960079  0.04265303     0.03900
C143        C  0.44173920  0.30624842  0.01176409    -0.12200
C144        C  0.45539892  0.31671998  0.98035217     0.01400
C145        C  0.48195017  0.34060014  0.97975723    -0.10800
C146        C  0.49466067  0.35488911  0.01031197     0.03900
C147        C  0.48080354  0.34386475  0.04196339    -0.10200
H148        H  0.42147127  0.28738656  0.01219465     0.09500
H149        H  0.49272221  0.34789603  0.95523686     0.07000
H150        H  0.49046433  0.35406514  0.06585503     0.06900
C151        C  0.34704151  0.20223988  0.77612905     0.03100
C152        C  0.35862802  0.16910979  0.76599403     0.03100
C153        C  0.34587381  0.15425528  0.73519234     0.03100
C154        C  0.31799116  0.16985807  0.71804920     0.03100
C155        C  0.30523109  0.20198520  0.72941283     0.03100
C156        C  0.31868233  0.21749038  0.75942612     0.03100
C157        C  0.46569142  0.89449074  0.61806448     0.03900
C158        C  0.45219528  0.92551889  0.62987046    -0.12200
C159        C  0.46070122  0.95643474  0.61395505     0.01400
C160        C  0.48422336  0.95641458  0.58678603    -0.10800
C161        C  0.49833426  0.92535037  0.57460677     0.03900
C162        C  0.48843104  0.89430684  0.59023854    -0.10200
H163        H  0.43439353  0.92550830  0.65116370     0.09500
H164        H  0.49119574  0.98060598  0.57506897     0.07000
H165        H  0.49828700  0.87006421  0.58094693     0.06900
C166        C  0.33634045  0.70777173  0.73875852     0.03100
C167        C  0.30736571  0.69250200  0.72335977     0.03100
C168        C  0.29311079  0.66256206  0.73786748     0.03100
C169        C  0.30518790  0.65053446  0.76982519     0.03100
C170        C  0.33472943  0.66490428  0.78495394     0.03100
C171        C  0.35026326  0.69385072  0.76937750     0.03100
C172        C  0.03430236  0.53853913  0.62228762     0.03900
C173        C  0.06453268  0.55183198  0.63578681    -0.12200
C174        C  0.09628075  0.53988954  0.62447999     0.01400
C175        C  0.09769124  0.51496015  0.59841707    -0.10800
C176        C  0.06743846  0.50149791  0.58414638     0.03900
C177        C  0.03576215  0.51357657  0.59643562    -0.10200
H178        H  0.06331548  0.57170730  0.65517910     0.09500
H179        H  0.12231229  0.50617601  0.58937218     0.07000
H180        H  0.01217463  0.50381632  0.58589216     0.06900
C181        C  0.04084457  0.31245851  0.61452434     0.03900
C182        C  0.07175927  0.29988390  0.62705609    -0.12200
C183        C  0.10266995  0.31249211  0.61456011     0.01400
C184        C  0.10265429  0.33851432  0.58959871    -0.10800
C185        C  0.07162709  0.35146154  0.57656085     0.03900
C186        C  0.04073833  0.33792849  0.58912861    -0.10200
H187        H  0.07176118  0.28006989  0.64658357     0.09500
H188        H  0.12674962  0.34843722  0.58038027     0.07000
H189        H  0.01656270  0.34730048  0.57951838     0.06900
C190        C  0.82238369  0.16860670  0.71017657     0.03100
C191        C  0.79237113  0.15531823  0.72583946     0.03100
C192        C  0.78111239  0.16934489  0.75745725     0.03100
C193        C  0.79622485  0.19965487  0.77042632     0.03100
C194        C  0.82598954  0.21295869  0.75492136     0.03100
C195        C  0.83815651  0.19832188  0.72403288     0.03100
C196        C  0.69195904  0.89486099  0.59382862     0.03900
C197        C  0.66435122  0.89515922  0.57099936    -0.12200
C198        C  0.64862041  0.92640956  0.56162876     0.01400
C199        C  0.66092533  0.95727331  0.57577028    -0.10800
C200        C  0.68837655  0.95692358  0.59877700     0.03900
C201        C  0.70373815  0.92576893  0.60755046    -0.10200
H202        H  0.65481624  0.87102673  0.56122283     0.09500
H203        H  0.64877280  0.98147668  0.56962759     0.07000
H204        H  0.72419667  0.92544570  0.62621921     0.06900
C205        C  0.84810709  0.71074079  0.72979410     0.03100
C206        C  0.86126158  0.68073355  0.74568329     0.03100
C207        C  0.84549283  0.66810262  0.77599606     0.03100
C208        C  0.81450356  0.68257937  0.78817415     0.03100
C209        C  0.80070660  0.71182414  0.77131290     0.03100
C210        C  0.81708455  0.72572165  0.74170648     0.03100
C211        C  0.46332699  0.54372813  0.03673211     0.03900
C212        C  0.44755040  0.55405577  0.00630822    -0.12200
C213        C  0.45717494  0.53971395  0.97493357     0.01400
C214        C  0.48329778  0.51512001  0.97383658    -0.10800
C215        C  0.49922655  0.50407164  0.00430459     0.03900
C216        C  0.48884945  0.51850414  0.03581085    -0.10200
H217        H  0.42748217  0.57320802  0.00708170     0.09500
H218        H  0.49080495  0.50444976  0.94932600     0.07000
H219        H  0.50033530  0.51013319  0.05963332     0.06900
C220        C  0.67607431  0.30535113  0.03259996     0.03900
C221        C  0.65385579  0.33359685  0.03270635    -0.12200
C222        C  0.64012791  0.34613676  0.00167461     0.01400
C223        C  0.64925093  0.32989760  0.97067837    -0.10800
C224        C  0.67098522  0.30127984  0.97088061     0.03900
C225        C  0.68374992  0.28889094  0.00184681    -0.10200
H226        H  0.64805376  0.34614386  0.05678516     0.09500
H227        H  0.64021287  0.33982736  0.94638677     0.07000
H228        H  0.70164049  0.26763381  0.00176683     0.06900
C229        C  0.68689552  0.53976702  0.02276600     0.03900
C230        C  0.69737739  0.55308462  0.99129057    -0.12200
C231        C  0.68386376  0.54070243  0.96051595     0.01400
C232        C  0.65924499  0.51425177  0.96153413    -0.10800
C233        C  0.64829948  0.50049362  0.99342056     0.03900
C234        C  0.66276594  0.51341538  0.02382585    -0.10200
H235        H  0.71610051  0.57350991  0.99076208     0.09500
H236        H  0.64879630  0.50455039  0.93778330     0.07000
H237        H  0.65483454  0.50359715  0.04856328     0.06900
C238        C  0.54080380  0.04686595  0.11704726     0.03900
C239        C  0.57168502  0.06132753  0.12732050    -0.12200
C240        C  0.60256478  0.04914613  0.11416192     0.01400
C241        C  0.60261449  0.02171708  0.09086460    -0.10800
C242        C  0.57169976  0.00673521  0.08022496     0.03900
C243        C  0.54079941  0.01948040  0.09372691    -0.10200
H244        H  0.57170522  0.08203863  0.14586199     0.09500
H245        H  0.62670872  0.01219063  0.08114652     0.07000
H246        H  0.51669412  0.00847184  0.08595213     0.06900
C247        C  0.18174524  0.45846887  0.10335680     0.03900
C248        C  0.19345119  0.42784441  0.11769395    -0.12200
C249        C  0.17883273  0.39656592  0.10844461     0.01400
C250        C  0.15302346  0.39578970  0.08350142    -0.10800
C251        C  0.14107181  0.42657456  0.06864617     0.03900
C252        C  0.15546141  0.45790976  0.07915638    -0.10200
H253        H  0.21341729  0.42844652  0.13688739     0.09500
H254        H  0.14210645  0.37139266  0.07614594     0.07000
H255        H  0.14637156  0.48196583  0.06864204     0.06900
C256        C  0.19248537  0.03761613  0.48378349     0.03900
C257        C  0.16566845  0.01389886  0.48104507    -0.12200
C258        C  0.15052104  0.99967574  0.51072017     0.01400
C259        C  0.16240969  0.01014369  0.54321046    -0.10800
C260        C  0.18906877  0.03395515  0.54587407     0.03900
C261        C  0.20383903  0.04747629  0.51620625    -0.10200
H262        H  0.15636147  0.00702057  0.45585834     0.09500
H263        H  0.15090591  0.00011225  0.56638839     0.07000
H264        H  0.22405372  0.06628242  0.51839673     0.06900
O265        O  0.03627775  0.89557392  0.46897957    -0.72100
O266        O  0.11199223  0.96489264  0.47813262    -0.73100
O267        O  0.10873446  0.89201241  0.47369807    -0.61700
O268        O  0.03955430  0.96842522  0.47418159    -0.70200
O269        O  0.03603231  0.96504384  0.53077941    -0.69700
O270        O  0.10503874  0.88905681  0.53031044    -0.61000
O271        O  0.10846895  0.96180214  0.53472063    -0.73500
O272        O  0.03272233  0.89221892  0.52555105    -0.72300
Cu273      Cu  0.07425376  0.93035491  0.47178808     1.04600
Cu274      Cu  0.07042711  0.92689259  0.53227817     1.04300
C275        C  0.02246888  0.88289173  0.49583554     0.94000
C276        C  0.12231105  0.97431522  0.50774551     0.93200
C277        C  0.11786466  0.87845982  0.50211829     0.85300
C278        C  0.02690105  0.97889662  0.50256867     0.91600
O279        O  0.59959697  0.96699157  0.04246050    -0.72100
O280        O  0.59792498  0.89829626  0.96524694    -0.73100
O281        O  0.60053309  0.97129356  0.97024979    -0.61700
O282        O  0.59784157  0.89372955  0.03792449    -0.70200
O283        O  0.54141323  0.89455018  0.03792087    -0.69700
O284        O  0.54410772  0.97336947  0.96987412    -0.61000
O285        O  0.54149289  0.90004991  0.96486904    -0.73500
O286        O  0.54314576  0.96806763  0.04233456    -0.72300
Cu287      Cu  0.60087263  0.93239961  0.00396741     1.04600
Cu288      Cu  0.54055909  0.93397417  0.00372774     1.04300
C289        C  0.57150652  0.97906079  0.05403856     0.94000
C290        C  0.56945940  0.88829343  0.95282119     0.93200
C291        C  0.57290621  0.98532615  0.96005482     0.85300
C292        C  0.56950188  0.88165857  0.04864525     0.91600
O293        O  0.10389200  0.45442515  0.95804365    -0.72100
O294        O  0.03058320  0.45654215  0.02888365    -0.73100
O295        O  0.10275472  0.45485295  0.03030299    -0.61700
O296        O  0.03200890  0.45523168  0.95605839    -0.70200
O297        O  0.03104035  0.39842414  0.95611169    -0.69700
O298        O  0.10194701  0.39803522  0.03111079    -0.61000
O299        O  0.02925572  0.39972805  0.02968371    -0.73500
O300        O  0.10346262  0.39757231  0.95824678    -0.72300
Cu301      Cu  0.06726924  0.45716392  0.99333272     1.04600
Cu302      Cu  0.06631928  0.39640749  0.99385808     1.04300
C303        C  0.11539305  0.42589971  0.94690055     0.94000
C304        C  0.01838121  0.42864115  0.04077654     0.93200
C305        C  0.11389249  0.42640756  0.04222496     0.85300
C306        C  0.02066607  0.42702112  0.94387001     0.91600
O307        O  0.60457840  0.38753559  0.97342479    -0.72100
O308        O  0.53515516  0.46396430  0.97476692    -0.73100
O309        O  0.60773673  0.46114937  0.96882008    -0.61700
O310        O  0.53260876  0.39113458  0.97884465    -0.70200
O311        O  0.53573619  0.39327584  0.03547863    -0.69700
O312        O  0.61134657  0.46321373  0.02540826    -0.61000
O313        O  0.53897621  0.46621952  0.03137756    -0.73500
O314        O  0.60791207  0.38989537  0.03006058    -0.72300
Cu315      Cu  0.56993548  0.42587510  0.97201273     1.04600
Cu316      Cu  0.57375217  0.42832992  0.03251114     1.04300
C317        C  0.61661530  0.37605578  0.00167301     0.94000
C318        C  0.52579628  0.47692692  0.00339829     0.93200
C319        C  0.62131187  0.47358012  0.99585450     0.85300
C320        C  0.52228911  0.38099143  0.00829295     0.91600
O321        O  0.04283547  0.39545467  0.46573821    -0.72100
O322        O  0.04091276  0.46373563  0.54365601    -0.73100
O323        O  0.04105053  0.46835246  0.47073363    -0.61700
O324        O  0.04286583  0.39075413  0.53911799    -0.70200
O325        O  0.09929006  0.39208948  0.53963173    -0.69700
O326        O  0.09748677  0.46959268  0.47121083    -0.61000
O327        O  0.09732161  0.46520073  0.54424215    -0.73500
O328        O  0.09924526  0.39680379  0.46621895    -0.72300
Cu329      Cu  0.03998780  0.42945798  0.50484949     1.04600
Cu330      Cu  0.10028142  0.43090003  0.50535206     1.04300
C331        C  0.07141151  0.38570672  0.45324140     0.94000
C332        C  0.06867005  0.47552059  0.55612366     0.93200
C333        C  0.06908260  0.48123997  0.46008601     0.85300
C334        C  0.07128127  0.37931326  0.55046534     0.91600
O335        O  0.60696740  0.89835746  0.52683949    -0.72100
O336        O  0.52917127  0.89821002  0.45998257    -0.73100
O337        O  0.60150042  0.90009293  0.45429459    -0.61700
O338        O  0.53430417  0.89738132  0.53306978    -0.70200
O339        O  0.53323771  0.95418149  0.53345658    -0.69700
O340        O  0.60016852  0.95688546  0.45582147    -0.61000
O341        O  0.52805941  0.95502061  0.46061381    -0.73500
O342        O  0.60582711  0.95514808  0.52825673    -0.72300
Cu343      Cu  0.56796352  0.89652189  0.49354966     1.04600
Cu344      Cu  0.56672777  0.95723781  0.49461931     1.04300
C345        C  0.61905337  0.92668455  0.53785171     0.94000
C346        C  0.51655085  0.92650152  0.44932344     0.93200
C347        C  0.61160596  0.92911274  0.44280297     0.85300
C348        C  0.52309506  0.92555819  0.54568195     0.91600
C349        C  0.76949443  0.64680883  0.86900847    -0.11100
C350        C  0.75122123  0.61943620  0.85488316     0.11500
C351        C  0.75218011  0.61426754  0.81904762    -0.02900
C352        C  0.77337165  0.63540346  0.79885609    -0.05600
C353        C  0.79273952  0.66231024  0.81294390    -0.16400
C354        C  0.79029613  0.66836130  0.84889467     0.02500
C355        C  0.73259881  0.59587682  0.87866163     0.12500
C356        C  0.73044147  0.58688645  0.80224844     0.63100
H357        H  0.77507494  0.63095837  0.77154315     0.12500
C358        C  0.80876642  0.69639892  0.86807024     0.55200
H359        H  0.76803490  0.65095174  0.89646506     0.08300
C360        C  0.74957562  0.56868290  0.89572998    -0.05500
C361        C  0.73141453  0.54882301  0.91976049    -0.06200
C362        C  0.69731561  0.55594315  0.92814769    -0.15800
C363        C  0.68010716  0.58273941  0.91065673    -0.01400
C364        C  0.69804104  0.60212748  0.88586876    -0.09000
C365        C  0.78730027  0.56194206  0.89006659     0.65300
H366        H  0.74443991  0.52894248  0.93409152     0.10800
C367        C  0.64341584  0.59158755  0.91923468     0.63700
H368        H  0.68559109  0.62319224  0.87278270     0.08100
F369        F  0.82804863  0.68195985  0.89400019    -0.19400
F370        F  0.78511154  0.71831764  0.88265199    -0.15600
F371        F  0.83005759  0.71531451  0.84752601    -0.19100
F372        F  0.69640945  0.59375709  0.80843024    -0.22400
F373        F  0.73835971  0.55496003  0.81544210    -0.23900
F374        F  0.73529241  0.58581136  0.76711300    -0.17900
F375        F  0.63150583  0.61878942  0.89979113    -0.20400
F376        F  0.64072603  0.60050779  0.95343786    -0.21600
F377        F  0.62288009  0.56354380  0.91289137    -0.18700
F378        F  0.79810317  0.53254325  0.90676417    -0.18800
F379        F  0.80605024  0.58925777  0.90234988    -0.22700
F380        F  0.79396670  0.55794304  0.85555743    -0.24300
C381        C  0.77582275  0.80464530  0.69848231    -0.11100
C382        C  0.75959817  0.78924532  0.67050211     0.11500
C383        C  0.76310719  0.75352191  0.66551776    -0.02900
C384        C  0.78219218  0.73437507  0.68944426    -0.05600
C385        C  0.79784030  0.74953707  0.71818291    -0.16400
C386        C  0.79462533  0.78563889  0.72262375     0.02500
C387        C  0.73878357  0.81162606  0.64750496     0.12500
C388        C  0.74655711  0.73570405  0.63525649     0.63100
H389        H  0.78510358  0.70701835  0.68584708     0.12500
C390        C  0.80977786  0.80604071  0.75180107     0.55200
H391        H  0.77342400  0.83217949  0.70170862     0.08300
C392        C  0.70661127  0.82458620  0.65788276    -0.05500
C393        C  0.69065110  0.84986825  0.63785169    -0.06200
C394        C  0.70581458  0.86249127  0.60795196    -0.15800
C395        C  0.73656563  0.84779131  0.59599498    -0.01400
C396        C  0.75281975  0.82268148  0.61626532    -0.09000
C397        C  0.69025432  0.81345614  0.69116228     0.65300
H398        H  0.66716799  0.86166502  0.64656011     0.10800
C399        C  0.75192412  0.85879771  0.56207231     0.63700
H400        H  0.77717175  0.81239506  0.60844214     0.08100
F401        F  0.78374912  0.81943570  0.77161745    -0.19400
F402        F  0.82861766  0.83298901  0.73871616    -0.15600
F403        F  0.83071623  0.78685720  0.77246387    -0.19100
F404        F  0.76028309  0.74795269  0.60500737    -0.22400
F405        F  0.71184678  0.74182104  0.63541954    -0.23900
F406        F  0.75160311  0.70056577  0.63617515    -0.17900
F407        F  0.75974439  0.89333323  0.56288383    -0.20400
F408        F  0.72869341  0.85287854  0.53611836    -0.21600
F409        F  0.78143272  0.84075914  0.55459107    -0.18700
F410        F  0.65756964  0.82641153  0.69480366    -0.18800
F411        F  0.70963683  0.82536163  0.71803029    -0.22700
F412        F  0.68843403  0.77808907  0.69262635    -0.24300
C413        C  0.73831226  0.25609855  0.82494738    -0.11100
C414        C  0.74394364  0.24238236  0.85749690     0.11500
C415        C  0.76754880  0.21527158  0.86183445    -0.02900
C416        C  0.78561651  0.20342497  0.83297151    -0.05600
C417        C  0.78020010  0.21737158  0.80021248    -0.16400
C418        C  0.75603040  0.24430298  0.79612410     0.02500
C419        C  0.72497721  0.25794190  0.88637637     0.12500
C420        C  0.77269976  0.19823252  0.89643865     0.63100
H421        H  0.80304722  0.18206199  0.83542636     0.12500
C422        C  0.74677887  0.26129088  0.76242953     0.55200
H423        H  0.71975124  0.27655870  0.82206606     0.08300
C424        C  0.73649030  0.28843875  0.90217643    -0.05500
C425        C  0.71700260  0.30267796  0.92870567    -0.06200
C426        C  0.68623569  0.28787481  0.93911004    -0.15800
C427        C  0.67376669  0.25835997  0.92231948    -0.01400
C428        C  0.69359569  0.24364926  0.89604404    -0.09000
C429        C  0.76923210  0.30579422  0.89104199     0.65300
H430        H  0.72594081  0.32523803  0.94214734     0.10800
C431        C  0.63964614  0.24298362  0.93204527     0.63700
H432        H  0.68483134  0.22093415  0.88282043     0.08100
F433        F  0.75240493  0.29621890  0.76495929    -0.19400
F434        F  0.71260726  0.25585442  0.75570652    -0.15600
F435        F  0.76525944  0.24920968  0.73507566    -0.19100
F436        F  0.74259333  0.18320983  0.90692401    -0.22400
F437        F  0.78244237  0.22217190  0.92057554    -0.23900
F438        F  0.79755752  0.17301574  0.89512887    -0.17900
F439        F  0.63163764  0.21496183  0.91183744    -0.20400
F440        F  0.61435166  0.26738656  0.92790127    -0.21600
F441        F  0.64021517  0.23244286  0.96588342    -0.18700
F442        F  0.77655759  0.33423976  0.91090269    -0.18800
F443        F  0.76637261  0.31643853  0.85737754    -0.22700
F444        F  0.79609958  0.28308876  0.89386247    -0.24300
C445        C  0.72497425  0.10106117  0.67996303    -0.11100
C446        C  0.74108050  0.06909327  0.67888488     0.11500
C447        C  0.77350672  0.06497395  0.69419763    -0.02900
C448        C  0.78894139  0.09352937  0.70979855    -0.05600
C449        C  0.77336061  0.12603544  0.71003546    -0.16400
C450        C  0.74044285  0.12979086  0.69499961     0.02500
C451        C  0.72507296  0.04158237  0.65812898     0.12500
C452        C  0.79171839  0.03055660  0.69395382     0.63100
H453        H  0.81376028  0.09075598  0.72144628     0.12500
C454        C  0.72056054  0.16317056  0.69233276     0.55200
H455        H  0.70039212  0.10393991  0.66759415     0.08300
C456        C  0.69825756  0.02079968  0.67071267    -0.05500
C457        C  0.68592838  0.99419447  0.64978181    -0.06200
C458        C  0.69924147  0.98833184  0.61690677    -0.15800
C459        C  0.72479280  0.01017729  0.60371102    -0.01400
C460        C  0.73702092  0.03685999  0.62452899    -0.09000
C461        C  0.68293137  0.02652253  0.70601268     0.65300
H462        H  0.66624663  0.97714782  0.65917497     0.10800
C463        C  0.73947010  0.00476293  0.56814501     0.63700
H464        H  0.75680015  0.05379401  0.61512178     0.08100
F465        F  0.69032354  0.15999171  0.71031184    -0.19400
F466        F  0.71288088  0.16948217  0.65829725    -0.15600
F467        F  0.73789500  0.19127086  0.70465179    -0.19100
F468        F  0.79782611  0.02024871  0.66065231    -0.22400
F469        F  0.77179695  0.00617631  0.71001891    -0.23900
F470        F  0.82269658  0.03198785  0.71082633    -0.17900
F471        F  0.76412294  0.02888999  0.56026465    -0.20400
F472        F  0.71377517  0.00728893  0.54405880    -0.21600
F473        F  0.75423955  0.97261151  0.56607023    -0.18700
F474        F  0.65774476  0.00280112  0.71340297    -0.18800
F475        F  0.66850045  0.05882987  0.70766308    -0.22700
F476        F  0.70789902  0.02375890  0.73079532    -0.24300
C477        C  0.96510079  0.29412313  0.67189964    -0.11100
C478        C  0.95373102  0.26300633  0.65806894     0.11500
C479        C  0.96847204  0.25023927  0.62747685    -0.02900
C480        C  0.99654957  0.26764065  0.61338656    -0.05600
C481        C  0.00883288  0.29798162  0.62808009    -0.16400
C482        C  0.99234464  0.31219272  0.65703454     0.02500
C483        C  0.92489656  0.24546669  0.67513734     0.12500
C484        C  0.95433539  0.21865575  0.60976914     0.63100
H485        H  0.00936516  0.25760204  0.59091422     0.12500
C486        C  0.00361360  0.34624695  0.67194550     0.55200
H487        H  0.95246452  0.30403205  0.69453913     0.08300
C488        C  0.92954625  0.22219594  0.70259124    -0.05500
C489        C  0.90060648  0.20671960  0.71731263    -0.06200
C490        C  0.86751968  0.21457846  0.70595739    -0.15800
C491        C  0.86313464  0.23896113  0.67919924    -0.01400
C492        C  0.89204775  0.25360065  0.66409346    -0.09000
C493        C  0.96476661  0.21471977  0.71687254     0.65300
H494        H  0.90348839  0.18886336  0.73836234     0.10800
C495        C  0.82910571  0.25153081  0.66576859     0.63700
H496        H  0.88895371  0.27214458  0.64357360     0.08100
F497        F  0.03694721  0.34387277  0.68314177    -0.19400
F498        F  0.98345305  0.35608619  0.69938135    -0.15600
F499        F  0.00137775  0.37146447  0.64709755    -0.19100
F500        F  0.92092061  0.22452981  0.60020889    -0.22400
F501        F  0.95540205  0.19088726  0.63170742    -0.23900
F502        F  0.97268605  0.21038627  0.58058192    -0.17900
F503        F  0.82724826  0.28676528  0.66949763    -0.20400
F504        F  0.80161594  0.23747783  0.68246289    -0.21600
F505        F  0.82657699  0.24365808  0.63132357    -0.18700
F506        F  0.96380356  0.19006918  0.74240836    -0.18800
F507        F  0.97830542  0.24437916  0.73061202    -0.22700
F508        F  0.98610596  0.20299793  0.69121061    -0.24300
C509        C  0.95899133  0.56038771  0.67953071    -0.11100
C510        C  0.94696826  0.59022497  0.66353114     0.11500
C511        C  0.96132299  0.60060913  0.63183195    -0.02900
C512        C  0.98800559  0.58096280  0.61766941    -0.05600
C513        C  0.00136807  0.55227245  0.63478194    -0.16400
C514        C  0.98614108  0.54121282  0.66588057     0.02500
C515        C  0.92411245  0.61304009  0.68367308     0.12500
C516        C  0.94976547  0.63324800  0.61399183     0.63100
H517        H  0.00026910  0.58920455  0.59417840     0.12500
C518        C  0.99808484  0.51047517  0.68656691     0.55200
H519        H  0.94816806  0.55293215  0.70398052     0.08300
C520        C  0.88842013  0.60874575  0.68565853    -0.05500
C521        C  0.86934793  0.63170255  0.70607520    -0.06200
C522        C  0.88490759  0.65764761  0.72572691    -0.15800
C523        C  0.92106027  0.66060278  0.72454281    -0.01400
C524        C  0.93970907  0.63847071  0.70327458    -0.09000
C525        C  0.87079772  0.57961549  0.66704965     0.65300
H526        H  0.84186301  0.62941760  0.70714338     0.10800
C527        C  0.94214793  0.68555186  0.74492217     0.63700
H528        H  0.96726076  0.64073979  0.70227420     0.08100
F529        F  0.97089978  0.48853589  0.69178111    -0.19400
F530        F  0.00976812  0.52157999  0.71808232    -0.15600
F531        F  0.02381444  0.49206481  0.67083460    -0.19100
F532        F  0.95789543  0.66143951  0.63379271    -0.22400
F533        F  0.91495459  0.63248235  0.60902734    -0.23900
F534        F  0.96515668  0.63718653  0.58227552    -0.17900
F535        F  0.92285425  0.70583745  0.76589254    -0.20400
F536        F  0.96500752  0.66755117  0.76508441    -0.21600
F537        F  0.96024111  0.70633287  0.72268151    -0.18700
F538        F  0.83578801  0.58081097  0.67130883    -0.18800
F539        F  0.88236050  0.54860146  0.67972339    -0.22700
F540        F  0.87771895  0.58120361  0.63236102    -0.24300
C541        C  0.36901374  0.63548152  0.87258089    -0.11100
C542        C  0.38715972  0.60596961  0.86299752     0.11500
C543        C  0.38666330  0.59524352  0.82841960    -0.02900
C544        C  0.36966103  0.61577935  0.80420160    -0.05600
C545        C  0.35212390  0.64589236  0.81343448    -0.16400
C546        C  0.35113902  0.65555539  0.84854139     0.02500
C547        C  0.40673728  0.58713065  0.88978239     0.12500
C548        C  0.40406913  0.56230884  0.81714987     0.63100
H549        H  0.36976644  0.60829677  0.77751058     0.12500
C550        C  0.33172865  0.68608479  0.86255565     0.55200
H551        H  0.36881854  0.64294329  0.89935567     0.08300
C552        C  0.43913386  0.59847957  0.90093234    -0.05500
C553        C  0.45566402  0.58069339  0.92744664    -0.06200
C554        C  0.44067905  0.55230063  0.94334255    -0.15800
C555        C  0.40866071  0.54019033  0.93163420    -0.01400
C556        C  0.39207384  0.55817054  0.90515776    -0.09000
C557        C  0.45521799  0.63043818  0.88620689     0.65300
H558        H  0.47986493  0.58979245  0.93716777     0.10800
C559        C  0.39076318  0.50878006  0.94588078     0.63700
H560        H  0.36718528  0.54971774  0.89662017     0.08100
F561        F  0.30996744  0.67522066  0.88827233    -0.19400
F562        F  0.31248839  0.70262771  0.83812049    -0.15600
F563        F  0.35452830  0.70927643  0.87631130    -0.19100
F564        F  0.39016873  0.53471792  0.83444078    -0.22400
F565        F  0.43853522  0.56401079  0.82415536    -0.23900
F566        F  0.40014955  0.55646115  0.78238100    -0.17900
F567        F  0.35955790  0.51838175  0.95935176    -0.20400
F568        F  0.40905467  0.49219312  0.97120076    -0.21600
F569        F  0.38537136  0.48569104  0.91953894    -0.18700
F570        F  0.48723679  0.63657847  0.89973168    -0.18800
F571        F  0.43465529  0.65809025  0.89387006    -0.22700
F572        F  0.45844995  0.62740762  0.85107097    -0.24300
C573        C  0.24454167  0.59797957  0.68234685    -0.11100
C574        C  0.21103350  0.60982692  0.68593305     0.11500
C575        C  0.20432431  0.63844263  0.70724292    -0.02900
C576        C  0.23182699  0.65495288  0.72342632    -0.05600
C577        C  0.26554877  0.64349666  0.71947429    -0.16400
C578        C  0.27204061  0.61406440  0.69886418     0.02500
C579        C  0.18327714  0.59055691  0.66852503     0.12500
C580        C  0.16818375  0.65095505  0.71349426     0.63100
H581        H  0.22711566  0.67677726  0.73981480     0.12500
C582        C  0.30688070  0.59786529  0.69338706     0.55200
H583        H  0.24923529  0.57551654  0.66664318     0.08300
C584        C  0.17425810  0.59657606  0.63386473    -0.05500
C585        C  0.14623942  0.57875104  0.61995021    -0.06200
C586        C  0.12775037  0.55485058  0.63942609    -0.15800
C587        C  0.13826915  0.54726351  0.67334176    -0.01400
C588        C  0.16594867  0.56537671  0.68734371    -0.09000
C589        C  0.19420666  0.62163234  0.61180368     0.65300
H590        H  0.13809816  0.58378141  0.59391155     0.10800
C591        C  0.12051739  0.51991265  0.69450510     0.63700
H592        H  0.17398133  0.56049091  0.71345338     0.08100
F593        F  0.31462014  0.59816803  0.65880257    -0.19400
F594        F  0.30595480  0.56411840  0.70429794    -0.15600
F595        F  0.33283045  0.61420924  0.71070633    -0.19100
F596        F  0.14988765  0.62587931  0.73046804    -0.22400
F597        F  0.15238777  0.65820572  0.68268415    -0.23900
F598        F  0.16748412  0.68040261  0.73329227    -0.17900
F599        F  0.13729299  0.51376130  0.72509068    -0.20400
F600        F  0.11952226  0.48950819  0.67629948    -0.21600
F601        F  0.08765328  0.53013470  0.70214015    -0.18700
F602        F  0.18090731  0.62409030  0.57903949    -0.18800
F603        F  0.22765848  0.61078760  0.60907659    -0.22700
F604        F  0.19356753  0.65393390  0.62634954    -0.24300
C605        C  0.36839660  0.79454666  0.70598397    -0.11100
C606        C  0.39561186  0.78388976  0.68520666     0.11500
C607        C  0.40331735  0.74860824  0.68237538    -0.02900
C608        C  0.38280680  0.72498788  0.70001237    -0.05600
C609        C  0.35519547  0.73542786  0.72044548    -0.16400
C610        C  0.34798107  0.77094444  0.72390345     0.02500
C611        C  0.41531289  0.81029199  0.66627481     0.12500
C612        C  0.43320325  0.73605047  0.66099261     0.63100
H613        H  0.38845557  0.69792587  0.69824688     0.12500
C614        C  0.31980930  0.78572238  0.74611005     0.55200
H615        H  0.36307284  0.82174906  0.70825353     0.08300
C616        C  0.40410533  0.82332434  0.63438407    -0.05500
C617        C  0.42355289  0.84857403  0.61787789    -0.06200
C618        C  0.45271476  0.86237705  0.63315481    -0.15800
C619        C  0.46403934  0.84939920  0.66518075    -0.01400
C620        C  0.44513274  0.82322961  0.68108071    -0.09000
C621        C  0.36997471  0.81320909  0.61972707     0.65300
H622        H  0.41465879  0.85973994  0.59405707     0.10800
C623        C  0.49505364  0.86260056  0.68415738     0.63700
H624        H  0.45326863  0.81332995  0.70574731     0.08100
F625        F  0.29706032  0.80343088  0.72562135    -0.19400
F626        F  0.33381171  0.80835837  0.76942385    -0.15600
F627        F  0.30198171  0.76121627  0.76421892    -0.19100
F628        F  0.46322891  0.74894150  0.67418653    -0.22400
F629        F  0.42967352  0.74692140  0.62745397    -0.23900
F630        F  0.43552590  0.70061525  0.66084855    -0.17900
F631        F  0.48469909  0.87741845  0.71465323    -0.20400
F632        F  0.51340246  0.88655385  0.66571487    -0.21600
F633        F  0.51655663  0.83540557  0.69144070    -0.18700
F634        F  0.36486339  0.82656779  0.58723766    -0.18800
F635        F  0.34483704  0.82583985  0.64108391    -0.22700
F636        F  0.36734867  0.77792546  0.61767424    -0.24300
C637        C  0.27714890  0.12766994  0.63914920    -0.11100
C638        C  0.25512738  0.10439910  0.65510093     0.11500
C639        C  0.25374871  0.10273554  0.69119273    -0.02900
C640        C  0.27460636  0.12493349  0.71026251    -0.05600
C641        C  0.29704374  0.14822121  0.69443733    -0.16400
C642        C  0.29826012  0.14966590  0.65804681     0.02500
C643        C  0.23287921  0.08343666  0.63276139     0.12500
C644        C  0.22995319  0.07800462  0.70923758     0.63100
H645        H  0.27324178  0.12462046  0.73795667     0.12500
C646        C  0.32048963  0.17356827  0.63732790     0.55200
H647        H  0.27763076  0.12881187  0.61136174     0.08300
C648        C  0.20349199  0.09736488  0.61677349    -0.05500
C649        C  0.18807394  0.07883111  0.59017327    -0.06200
C650        C  0.20096837  0.04714263  0.57926489    -0.15800
C651        C  0.22880747  0.03212118  0.59669802    -0.01400
C652        C  0.24442117  0.05064199  0.62335761    -0.09000
C653        C  0.18804155  0.13202097  0.62559206     0.65300
H654        H  0.16675131  0.09008381  0.57649925     0.10800
C655        C  0.24279010  0.99747858  0.58590702     0.63700
H656        H  0.26701849  0.04054977  0.63571917     0.08100
F657        F  0.29995463  0.19531554  0.61838123    -0.19400
F658        F  0.34043941  0.15457935  0.61505735    -0.15600
F659        F  0.34172317  0.19308518  0.65722219    -0.19100
F660        F  0.23894243  0.04468393  0.70113385    -0.22400
F661        F  0.19676918  0.08393217  0.69888417    -0.23900
F662        F  0.23131030  0.08155537  0.74451449    -0.17900
F663        F  0.26865231  0.98644839  0.60737508    -0.20400
F664        F  0.25563132  0.99949747  0.55294226    -0.21600
F665        F  0.21703189  0.97333702  0.58680600    -0.18700
F666        F  0.15407175  0.12767634  0.63401249    -0.18800
F667        F  0.19019915  0.15332655  0.59732263    -0.22700
F668        F  0.20375608  0.14808178  0.65284516    -0.24300
C669        C  0.25314881  0.26226878  0.67224386    -0.11100
C670        C  0.22001953  0.25135625  0.67948981     0.11500
C671        C  0.21477310  0.22367618  0.70238030    -0.02900
C672        C  0.24336512  0.20762213  0.71715206    -0.05600
C673        C  0.27668428  0.21907169  0.71061826    -0.16400
C674        C  0.28169046  0.24709683  0.68774706     0.02500
C675        C  0.19135675  0.26895263  0.66195155     0.12500
C676        C  0.17911504  0.21178125  0.71177382     0.63100
H677        H  0.23990264  0.18634891  0.73462607     0.12500
C678        C  0.31594566  0.26250155  0.67835427     0.55200
H679        H  0.25674163  0.28325213  0.65433984     0.08300
C680        C  0.17819122  0.30076246  0.67353619    -0.05500
C681        C  0.14969708  0.31483357  0.65667359    -0.06200
C682        C  0.13476550  0.29833313  0.62853097    -0.15800
C683        C  0.14883946  0.26729095  0.61611547    -0.01400
C684        C  0.17727069  0.25322763  0.63295586    -0.09000
C685        C  0.19428663  0.31970758  0.70339752     0.65300
H686        H  0.13851407  0.33864360  0.66556878     0.10800
C687        C  0.13345773  0.24895943  0.58554782     0.63700
H688        H  0.18829886  0.22929551  0.62417152     0.08100
F689        F  0.31641848  0.29654854  0.68813365    -0.19400
F690        F  0.32034448  0.26100260  0.64320221    -0.15600
F691        F  0.34318886  0.24612263  0.69347464    -0.19100
F692        F  0.16229482  0.20030987  0.68290323    -0.22400
F693        F  0.16091838  0.23866508  0.72592657    -0.23900
F694        F  0.17974072  0.18528410  0.73540133    -0.17900
F695        F  0.15219221  0.22027200  0.57637877    -0.20400
F696        F  0.13249419  0.27088782  0.55769119    -0.21600
F697        F  0.10070053  0.23849896  0.59330811    -0.18700
F698        F  0.17570003  0.34851843  0.71248128    -0.18800
F699        F  0.22676127  0.33011653  0.69449086    -0.22700
F700        F  0.19623013  0.29850656  0.73171257    -0.24300
C701        C  0.38169360  0.06584929  0.70924162    -0.11100
C702        C  0.40047661  0.07473956  0.67986663     0.11500
C703        C  0.40043140  0.10915288  0.66856309    -0.02900
C704        C  0.38374775  0.13396991  0.68869593    -0.05600
C705        C  0.36401680  0.12522750  0.71756179    -0.16400
C706        C  0.36260823  0.09028611  0.72783132     0.02500
C707        C  0.41805716  0.04695977  0.66039224     0.12500
C708        C  0.41684624  0.11931409  0.63475575     0.63100
H709        H  0.38601148  0.16070781  0.68193759     0.12500
C710        C  0.34167622  0.07705977  0.75767825     0.55200
H711        H  0.38125633  0.03922054  0.71726587     0.08300
C712        C  0.45312004  0.03858442  0.66464076    -0.05500
C713        C  0.46611574  0.00918052  0.64841215    -0.06200
C714        C  0.44585332  0.98876537  0.62722565    -0.15800
C715        C  0.41156556  0.99825617  0.62104524    -0.01400
C716        C  0.39806285  0.02699103  0.63826031    -0.09000
C717        C  0.47817068  0.05910977  0.68582056     0.65300
H718        H  0.49245484  0.00181449  0.65262178     0.10800
C719        C  0.38957574  0.97829470  0.59610813     0.63700
H720        H  0.37153213  0.03393678  0.63490186     0.08100
F721        F  0.36328294  0.06375641  0.78233367    -0.19400
F722        F  0.32030874  0.05129712  0.74632744    -0.15600
F723        F  0.32172146  0.10196559  0.77266224    -0.19100
F724        F  0.40120054  0.10182368  0.60829580    -0.22400
F725        F  0.45113665  0.11133818  0.63477675    -0.23900
F726        F  0.41366891  0.15410148  0.62841449    -0.17900
F727        F  0.38410831  0.94548496  0.60831218    -0.20400
F728        F  0.40577175  0.97644556  0.56464595    -0.21600
F729        F  0.35815750  0.99376382  0.59126216    -0.18700
F730        F  0.50620525  0.06717301  0.66584831    -0.18800
F731        F  0.48893073  0.03954660  0.71335604    -0.22700
F732        F  0.46469611  0.08941854  0.69787997    -0.24300
C733        C  0.40736196  0.30277994  0.89698054    -0.11100
C734        C  0.41568404  0.26849794  0.88993471     0.11500
C735        C  0.43903599  0.25084421  0.91122879    -0.02900
C736        C  0.45178667  0.26766482  0.94040207    -0.05600
C737        C  0.44248121  0.30155198  0.94814112    -0.16400
C738        C  0.42029695  0.31970802  0.92599477     0.02500
C739        C  0.39799274  0.25138201  0.86104977     0.12500
C740        C  0.45080815  0.21473656  0.90272373     0.63100
H741        H  0.46915232  0.25449989  0.95752258     0.12500
C742        C  0.40950504  0.35633423  0.93365068     0.55200
H743        H  0.38979246  0.31582756  0.87997448     0.08300
C744        C  0.36448255  0.23868647  0.86472806    -0.05500
C745        C  0.34820906  0.22465560  0.83593154    -0.06200
C746        C  0.36499246  0.22090878  0.80433091    -0.15800
C747        C  0.39873478  0.23381033  0.80071281    -0.01400
C748        C  0.41448092  0.24903104  0.82926696    -0.09000
C749        C  0.34650697  0.23882407  0.89929084     0.65300
H750        H  0.32236534  0.21544001  0.83824118     0.10800
C751        C  0.41910255  0.23348987  0.76747925     0.63700
H752        H  0.43996966  0.25941566  0.82669382     0.08100
F753        F  0.38626367  0.36851172  0.90988994    -0.19400
F754        F  0.43759077  0.37764918  0.93295419    -0.15600
F755        F  0.39451090  0.35792497  0.96571778    -0.19100
F756        F  0.46770318  0.21514319  0.87169574    -0.22400
F757        F  0.42327922  0.19282149  0.90045780    -0.23900
F758        F  0.47286885  0.20185763  0.92723539    -0.17900
F759        F  0.42940719  0.26654759  0.75984459    -0.20400
F760        F  0.40115503  0.22128950  0.73964207    -0.21600
F761        F  0.44775617  0.21332130  0.77163656    -0.18700
F762        F  0.31477438  0.22355219  0.89758046    -0.18800
F763        F  0.34227725  0.27203406  0.91078981    -0.22700
F764        F  0.36559857  0.22086016  0.92301953    -0.24300
C765        C  0.70584477  0.60050346  0.09618263    -0.11100
C766        C  0.73480590  0.58501069  0.11036673     0.11500
C767        C  0.74644138  0.55315942  0.09739496    -0.02900
C768        C  0.72930744  0.53858327  0.06928556    -0.05600
C769        C  0.70077326  0.55456210  0.05459960    -0.16400
C770        C  0.68832788  0.58572212  0.06857952     0.02500
C771        C  0.75178281  0.60255303  0.13939753     0.12500
C772        C  0.77676363  0.53480453  0.11316688     0.63100
H773        H  0.73829286  0.51475825  0.05820143     0.12500
C774        C  0.65725734  0.60481550  0.05527889     0.55200
H775        H  0.69682323  0.62454556  0.10685370     0.08300
C776        C  0.77499960  0.62981179  0.13440588    -0.05500
C777        C  0.78948771  0.64556942  0.16335011    -0.06200
C778        C  0.78103731  0.63537953  0.19686187    -0.15800
C779        C  0.75702470  0.60848824  0.20162657    -0.01400
C780        C  0.74303252  0.59252376  0.17266028    -0.09000
C781        C  0.78397172  0.64247743  0.09869653     0.65300
H782        H  0.80731130  0.66643457  0.16002861     0.10800
C783        C  0.74453588  0.59548109  0.23604766     0.63700
H784        H  0.72462804  0.57206078  0.17603240     0.08100
F785        F  0.66762597  0.63535318  0.04060495    -0.19400
F786        F  0.63558667  0.61200876  0.08235136    -0.15600
F787        F  0.63889183  0.58659085  0.03124799    -0.19100
F788        F  0.76899376  0.52504520  0.14632869    -0.22400
F789        F  0.80467276  0.55630545  0.11375761    -0.23900
F790        F  0.78560493  0.50569819  0.09488113    -0.17900
F791        F  0.70956384  0.59947014  0.23789764    -0.20400
F792        F  0.75876626  0.61227338  0.26351205    -0.21600
F793        F  0.75205464  0.56095845  0.23899508    -0.18700
F794        F  0.80848503  0.66794124  0.09952912    -0.18800
F795        F  0.75524667  0.65575472  0.08307192    -0.22700
F796        F  0.79645383  0.61575657  0.07907486    -0.24300
C797        C  0.93360996  0.63376101  0.29908985    -0.11100
C798        C  0.92475013  0.61224814  0.32654281     0.11500
C799        C  0.88998731  0.60793398  0.33501556    -0.02900
C800        C  0.86524493  0.62464957  0.31498472    -0.05600
C801        C  0.87384137  0.64449493  0.28616637    -0.16400
C802        C  0.90881078  0.64971211  0.27838468     0.02500
C803        C  0.95242162  0.59460957  0.34597577     0.12500
C804        C  0.87903000  0.58561049  0.36495550     0.63100
H805        H  0.83861241  0.62247375  0.32185421     0.12500
C806        C  0.92178821  0.67192200  0.24934877     0.55200
H807        H  0.96037407  0.63781914  0.29348323     0.08300
C808        C  0.96924303  0.56513681  0.33295336    -0.05500
C809        C  0.99538985  0.54998572  0.35232478    -0.06200
C810        C  0.00581932  0.56388396  0.38361699    -0.15800
C811        C  0.98918394  0.59325578  0.39680051    -0.01400
C812        C  0.96247821  0.60813859  0.37773191    -0.09000
C813        C  0.96060354  0.55054890  0.29813669     0.65300
H814        H  0.00914466  0.52798872  0.34243651     0.10800
C815        C  0.00044991  0.60917602  0.43032808     0.63700
H816        H  0.94977749  0.63100847  0.38702261     0.08100
F817        F  0.94195178  0.65233387  0.22780984    -0.19400
F818        F  0.94130595  0.69817810  0.26275854    -0.15600
F819        F  0.89609194  0.68625810  0.23007570    -0.19100
F820        F  0.89049250  0.59969005  0.39530636    -0.22400
F821        F  0.89244858  0.55299696  0.36135208    -0.23900
F822        F  0.84392737  0.58270721  0.36699043    -0.17900
F823        F  0.03361985  0.62067076  0.42729422    -0.20400
F824        F  0.99877828  0.58498907  0.45621528    -0.21600
F825        F  0.98007325  0.63670220  0.43950406    -0.18700
F826        F  0.97907306  0.52112406  0.29089909    -0.18800
F827        F  0.96802434  0.57459389  0.27324935    -0.22700
F828        F  0.92642995  0.54239910  0.29684990    -0.24300
C829        C  0.74506685  0.75307690  0.33236596    -0.11100
C830        C  0.74402424  0.78506334  0.31616130     0.11500
C831        C  0.76133469  0.78987493  0.28469536    -0.02900
C832        C  0.77797487  0.76167752  0.26964996    -0.05600
C833        C  0.77852819  0.72931873  0.28544983    -0.16400
C834        C  0.76195738  0.72491196  0.31764990     0.02500
C835        C  0.72544711  0.81344379  0.33328482     0.12500
C836        C  0.76251971  0.82476631  0.26738754     0.63100
H837        H  0.79082611  0.76471858  0.24532278     0.12500
C838        C  0.76051467  0.69150782  0.33775662     0.55200
H839        H  0.73225904  0.75002951  0.35683420     0.08300
C840        C  0.69007662  0.81880401  0.32849824    -0.05500
C841        C  0.67489476  0.84812593  0.34300548    -0.06200
C842        C  0.69384081  0.87122516  0.36279993    -0.15800
C843        C  0.72862849  0.86428697  0.36988459    -0.01400
C844        C  0.74392213  0.83541397  0.35470348    -0.09000
C845        C  0.66847982  0.79328956  0.30880532     0.65300
H846        H  0.64811978  0.85344488  0.33883202     0.10800
C847        C  0.74940298  0.88690760  0.39369896     0.63700
H848        H  0.77071223  0.83008719  0.35882437     0.08100
F849        F  0.72680462  0.68267699  0.34321649    -0.19400
F850        F  0.77588026  0.69619827  0.36927697    -0.15600
F851        F  0.77634130  0.66431856  0.32157165    -0.19100
F852        F  0.77792006  0.84825199  0.28887283    -0.22400
F853        F  0.72987760  0.83584763  0.25999430    -0.23900
F854        F  0.78084711  0.82386413  0.23705760    -0.17900
F855        F  0.78057899  0.87220654  0.40154559    -0.20400
F856        F  0.73191290  0.89194897  0.42409804    -0.21600
F857        F  0.75552543  0.91827735  0.37843318    -0.18700
F858        F  0.63481909  0.80375037  0.30662532    -0.18800
F859        F  0.66925060  0.76195038  0.32536646    -0.22700
F860        F  0.68087821  0.78931308  0.27586915    -0.24300
C861        C  0.67937862  0.10637613  0.12941949    -0.11100
C862        C  0.69021631  0.09422571  0.16149786     0.11500
C863        C  0.67383303  0.06549325  0.17640810    -0.02900
C864        C  0.64604725  0.05072666  0.15931266    -0.05600
C865        C  0.63463287  0.06343304  0.12780139    -0.16400
C866        C  0.65183388  0.09115071  0.11203119     0.02500
C867        C  0.71737233  0.11319715  0.18002608     0.12500
C868        C  0.68608959  0.05011810  0.20990968     0.63100
H869        H  0.63246625  0.02940543  0.17072447     0.12500
C870        C  0.64056130  0.10492128  0.07748353     0.55200
H871        H  0.69222725  0.12834906  0.11846840     0.08300
C872        C  0.75237956  0.10816667  0.17312937    -0.05500
C873        C  0.77642789  0.12526770  0.19364571    -0.06200
C874        C  0.76662170  0.14843536  0.21949546    -0.15800
C875        C  0.73141181  0.15426886  0.22550317    -0.01400
C876        C  0.70746447  0.13629308  0.20571013    -0.09000
C877        C  0.76420378  0.08582116  0.14354153     0.65300
H878        H  0.80339853  0.12146774  0.18902576     0.10800
C879        C  0.71731622  0.17855835  0.25222102     0.63700
H880        H  0.68049121  0.14023361  0.21043579     0.08100
F881        F  0.64096088  0.07883395  0.05349557    -0.19400
F882        F  0.66174040  0.13081961  0.06587247    -0.15600
F883        F  0.60790667  0.11795272  0.08002718    -0.19100
F884        F  0.68379828  0.07399246  0.23596124    -0.22400
F885        F  0.71959018  0.03989216  0.20620441    -0.23900
F886        F  0.66710743  0.02176020  0.21943141    -0.17900
F887        F  0.69552522  0.20174255  0.23668312    -0.20400
F888        F  0.74222443  0.19683608  0.26885302    -0.21600
F889        F  0.69922787  0.15996839  0.27633419    -0.18700
F890        F  0.79929872  0.08222266  0.14299992    -0.18800
F891        F  0.75424383  0.10059719  0.11292341    -0.22700
F892        F  0.75010413  0.05346518  0.14598484    -0.24300
C893        C  0.74573096  0.28939715  0.09749658    -0.11100
C894        C  0.73173961  0.26213486  0.11613781     0.11500
C895        C  0.69761049  0.25196691  0.11033209    -0.02900
C896        C  0.67941272  0.26770722  0.08351042    -0.05600
C897        C  0.69402842  0.29391443  0.06377560    -0.16400
C898        C  0.72729901  0.30567292  0.07128897     0.02500
C899        C  0.75336366  0.24529094  0.14219911     0.12500
C900        C  0.68038979  0.22534623  0.13293256     0.63100
H901        H  0.65382565  0.25938528  0.07736483     0.12500
C902        C  0.74336260  0.33486447  0.05122059     0.55200
H903        H  0.77155950  0.29728199  0.10321590     0.08300
C904        C  0.77380582  0.21641009  0.13446577    -0.05500
C905        C  0.79212170  0.20077796  0.16117918    -0.06200
C906        C  0.79195476  0.21415467  0.19459312    -0.15800
C907        C  0.77332399  0.24470882  0.20152602    -0.01400
C908        C  0.75416500  0.25952754  0.17504327    -0.09000
C909        C  0.77701825  0.20287927  0.09805888     0.65300
H910        H  0.80669793  0.17781109  0.15613197     0.10800
C911        C  0.77236970  0.26320957  0.23578483     0.63700
H912        H  0.73935701  0.28250133  0.18009596     0.08100
F913        F  0.74753140  0.32541301  0.01732630    -0.19400
F914        F  0.77498333  0.34372214  0.06414177    -0.15600
F915        F  0.72259045  0.36350480  0.05286848    -0.19100
F916        F  0.67889305  0.23735347  0.16622629    -0.22400
F917        F  0.69842176  0.19490987  0.13259549    -0.23900
F918        F  0.64749609  0.21849757  0.12218441    -0.17900
F919        F  0.78664956  0.29538393  0.23182030    -0.20400
F920        F  0.78958367  0.24636906  0.26161284    -0.21600
F921        F  0.73887305  0.26719687  0.24612859    -0.18700
F922        F  0.79901914  0.17514375  0.09614831    -0.18800
F923        F  0.78957076  0.22843391  0.07698038    -0.22700
F924        F  0.74565813  0.19255289  0.08586070    -0.24300
C925        C  0.69487750  0.04614081  0.32789308    -0.11100
C926        C  0.72787591  0.05192837  0.34041987     0.11500
C927        C  0.74014476  0.03237259  0.36834840    -0.02900
C928        C  0.72013718  0.00530801  0.38079720    -0.05600
C929        C  0.68844436  0.99760928  0.36628317    -0.16400
C930        C  0.67494815  0.01876562  0.34015956     0.02500
C931        C  0.74985171  0.07697354  0.32221798     0.12500
C932        C  0.77457164  0.03955860  0.38419301     0.63100
H933        H  0.72967522  0.98891951  0.40108334     0.12500
C934        C  0.64043231  0.01141685  0.32446483     0.55200
H935        H  0.68570663  0.06205722  0.30708711     0.08300
C936        C  0.76782867  0.06796698  0.29204548    -0.05500
C937        C  0.78758080  0.09312888  0.27553533    -0.06200
C938        C  0.78983164  0.12673515  0.28820832    -0.15800
C939        C  0.77212364  0.13548434  0.31891172    -0.01400
C940        C  0.75238757  0.11025971  0.33522891    -0.10200
C941        C  0.76625887  0.03182703  0.27755823     0.65300
H942        H  0.80123939  0.08683557  0.25226369     0.10800
C943        C  0.77234140  0.17060545  0.33583639     0.63700
H944        H  0.73844433  0.11671007  0.35837434     0.08100
F945        F  0.63173790  0.03548431  0.29985174    -0.19400
F946        F  0.61568955  0.01194124  0.34972379    -0.15600
F947        F  0.64087350  0.97945544  0.30914241    -0.19100
F948        F  0.77469338  0.07227397  0.39780097    -0.22400
F949        F  0.79957928  0.03699083  0.35942752    -0.23900
F950        F  0.78230159  0.01668591  0.41021788    -0.17900
F951        F  0.79030289  0.19506966  0.31779314    -0.20400
F952        F  0.78654284  0.16771544  0.36814239    -0.21600
F953        F  0.73919185  0.18222280  0.33939168    -0.18700
F954        F  0.78525035  0.02864039  0.24780075    -0.18800
F955        F  0.73297995  0.02326316  0.27011517    -0.22700
F956        F  0.77878182  0.00864953  0.30120177    -0.24300
C957        C  0.23028338  0.60782229  0.16912701    -0.11100
C958        C  0.24324678  0.57442654  0.16923918     0.11500
C959        C  0.27309415  0.56680867  0.18815211    -0.02900
C960        C  0.28928089  0.59342684  0.20617720    -0.05600
C961        C  0.27612335  0.62693118  0.20642147    -0.16400
C962        C  0.24579160  0.63428661  0.18775246     0.02500
C963        C  0.22435582  0.54756671  0.15024946     0.12500
C964        C  0.28742896  0.53061287  0.18958342     0.63100
H965        H  0.31246524  0.58827794  0.22023506     0.12500
C966        C  0.22840843  0.66914689  0.18587724     0.55200
H967        H  0.20743570  0.61322244  0.15445311     0.08300
C968        C  0.19569723  0.53101302  0.16467615    -0.05500
C969        C  0.18184404  0.50263901  0.14767496    -0.06200
C970        C  0.19522900  0.49109793  0.11646022    -0.15800
C971        C  0.22216819  0.50936299  0.10053891    -0.01400
C972        C  0.23616056  0.53764134  0.11781872    -0.09000
C973        C  0.18049361  0.54284475  0.19828068     0.65300
H974        H  0.16082681  0.48862912  0.15900603     0.10800
C975        C  0.23740054  0.50027492  0.06593303     0.63700
H976        H  0.25738747  0.55137240  0.10647934     0.08100
F977        F  0.19595491  0.66653755  0.19944883    -0.19400
F978        F  0.22558746  0.67904319  0.15191988    -0.15600
F979        F  0.24545818  0.69469876  0.20325033    -0.19100
F980        F  0.29661539  0.52000962  0.15707880    -0.22400
F981        F  0.26318741  0.50838113  0.20248170    -0.23900
F982        F  0.31592979  0.52856335  0.21035675    -0.17900
F983        F  0.23107627  0.52681992  0.04327470    -0.20400
F984        F  0.22439061  0.47048195  0.05205732    -0.21600
F985        F  0.27227169  0.49622072  0.06923109    -0.18700
F986        F  0.15400832  0.52199026  0.20896472    -0.18800
F987        F  0.16794935  0.57581074  0.19475415    -0.22700
F988        F  0.20542416  0.54240549  0.22315062    -0.24300
C989        C  0.44420656  0.60374899  0.11084363    -0.11100
C990        C  0.41329032  0.58990305  0.12234493     0.11500
C991        C  0.40158117  0.55846157  0.10861111    -0.02900
C992        C  0.42055879  0.54277612  0.08239397    -0.05600
C993        C  0.45039308  0.55768044  0.06943056    -0.16400
C994        C  0.46323044  0.58809073  0.08458832     0.02500
C995        C  0.39160576  0.61074733  0.14554098     0.12500
C996        C  0.36865361  0.54208116  0.12087756     0.63100
H997        H  0.41118441  0.51962321  0.07033948     0.12500
C998        C  0.49599122  0.60572015  0.07376585     0.55200
H999        H  0.45288336  0.62785085  0.12147909     0.08300
C1000       C  0.39704115  0.61271401  0.18125964    -0.05500
C1001       C  0.37356441  0.63123706  0.20128707    -0.06200
C1002       C  0.34605513  0.64919687  0.18662008    -0.15800
C1003       C  0.34133486  0.64777594  0.15056545    -0.01400
C1004       C  0.36434296  0.62858892  0.13080628    -0.09000
C1005       C  0.42779961  0.59607836  0.19798225     0.65300
H1006       H  0.37686495  0.63248270  0.22881339     0.10800
C1007       C  0.31280734  0.66505107  0.13115807     0.63700
H1008       H  0.36083577  0.62722737  0.10325678     0.08100
F1009       F  0.51756199  0.60772738  0.10171563    -0.19400
F1010       F  0.48864364  0.63861188  0.06267708    -0.15600
F1011       F  0.51309411  0.58882839  0.04781006    -0.19100
F1012       F  0.34116328  0.56253975  0.11229607    -0.22400
F1013       F  0.36962345  0.53798421  0.15605174    -0.23900
F1014       F  0.36360715  0.51014922  0.10627610    -0.17900
F1015       F  0.32635098  0.68522076  0.10534612    -0.20400
F1016       F  0.29299633  0.68551683  0.15164166    -0.21600
F1017       F  0.29227307  0.64027168  0.11653820    -0.18700
F1018       F  0.42689363  0.59911701  0.23333391    -0.18800
F1019       F  0.45717875  0.61178665  0.18636561    -0.22700
F1020       F  0.42906479  0.56158412  0.18995190    -0.24300
C1021       C  0.17635931  0.60336760  0.37454186    -0.11100
C1022       C  0.18329395  0.59177098  0.34115518     0.11500
C1023       C  0.16526960  0.56323163  0.32806414    -0.02900
C1024       C  0.13945601  0.54830427  0.34801805    -0.05600
C1025       C  0.13122460  0.56110894  0.38046541    -0.16400
C1026       C  0.15017283  0.58853959  0.39441945     0.02500
C1027       C  0.20820558  0.61095949  0.31963798     0.12500
C1028       C  0.17260019  0.54953503  0.29262371     0.63100
H1029       H  0.12442597  0.52736833  0.33788339     0.12500
C1030       C  0.14165379  0.60256577  0.42962980     0.55200
H1031       H  0.19062933  0.62499362  0.38428223     0.08300
C1032       C  0.19883033  0.63943186  0.29896985    -0.05500
C1033       C  0.22381977  0.65512214  0.27842950    -0.06200
C1034       C  0.25778395  0.64384907  0.27796248    -0.15800
C1035       C  0.26693491  0.61471395  0.29800483    -0.01400
C1036       C  0.24192841  0.59911540  0.31867747    -0.09000
C1037       C  0.16306924  0.65428329  0.29691254     0.65300
H1038       H  0.21672358  0.67697445  0.26288905     0.10800
C1039       C  0.30209756  0.59831841  0.29870441     0.63700
H1040       H  0.24875168  0.57700240  0.33410398     0.08100
F1041       F  0.16341003  0.62872951  0.43906765    -0.19400
F1042       F  0.14430765  0.57668732  0.45373808    -0.15600
F1043       F  0.10872804  0.61526039  0.42978814    -0.19100
F1044       F  0.20608300  0.53855762  0.29099833    -0.22400
F1045       F  0.16721174  0.57527919  0.26888305    -0.23900
F1046       F  0.15182202  0.52214306  0.28426755    -0.17900
F1047       F  0.31388108  0.59737859  0.33208989    -0.20400
F1048       F  0.32594996  0.61525461  0.27900963    -0.21600
F1049       F  0.29967689  0.56500877  0.28678913    -0.18700
F1050       F  0.16411482  0.68879523  0.30494511    -0.18800
F1051       F  0.14007652  0.63874217  0.31874773    -0.22700
F1052       F  0.15112808  0.65079225  0.26376763    -0.24300
C1053       C  0.39818836  0.81324757  0.37012155    -0.11100
C1054       C  0.40416793  0.80950816  0.33489070     0.11500
C1055       C  0.42667049  0.83207403  0.31784884    -0.02900
C1056       C  0.44301183  0.85756224  0.33709161    -0.05600
C1057       C  0.43586334  0.86251520  0.37204607    -0.16400
C1058       C  0.41296691  0.84002186  0.38904391     0.02500
C1059       C  0.38388484  0.78398080  0.31582166     0.12500
C1060       C  0.43191121  0.83052060  0.27924182     0.63100
H1061       H  0.46003449  0.87541718  0.32447322     0.12500
C1062       C  0.40170325  0.84358807  0.42614714     0.55200
H1063       H  0.38030475  0.79609694  0.38258404     0.08300
C1064       C  0.39371314  0.74926206  0.31334162    -0.05500
C1065       C  0.37328845  0.72700111  0.29401026    -0.06200
C1066       C  0.34393500  0.73842896  0.27674247    -0.15800
C1067       C  0.33426560  0.77346037  0.27939169    -0.01400
C1068       C  0.35415067  0.79535140  0.29962389    -0.09000
C1069       C  0.42548337  0.73586940  0.33110754     0.65300
H1070       H  0.38016921  0.70019731  0.29215273     0.10800
C1071       C  0.30424598  0.78987288  0.26136094     0.63700
H1072       H  0.34687307  0.82209283  0.30212122     0.08100
F1073       F  0.41196665  0.81484690  0.44420834    -0.19400
F1074       F  0.36651817  0.84574308  0.42745503    -0.15600
F1075       F  0.41467203  0.87218231  0.44230991    -0.19100
F1076       F  0.40179413  0.83853385  0.26272116    -0.22400
F1077       F  0.44211125  0.79804086  0.26950385    -0.23900
F1078       F  0.45647653  0.85350521  0.26835007    -0.17900
F1079       F  0.28215094  0.80337330  0.28549545    -0.20400
F1080       F  0.28642514  0.76737551  0.24110557    -0.21600
F1081       F  0.31585106  0.81630885  0.24080084    -0.18700
F1082       F  0.43067645  0.70131243  0.32482410    -0.18800
F1083       F  0.42244638  0.74034308  0.36611624    -0.22700
F1084       F  0.45384296  0.75343595  0.31963389    -0.24300
C1085       C  0.24547551  0.05741120  0.40417806    -0.11100
C1086       C  0.23797508  0.09235349  0.39941773     0.11500
C1087       C  0.21513227  0.10890781  0.42225435    -0.02900
C1088       C  0.20019567  0.08970958  0.44873442    -0.05600
C1089       C  0.20738457  0.05478149  0.45331949    -0.16400
C1090       C  0.23091741  0.03835733  0.43120917     0.02500
C1091       C  0.25168621  0.10935651  0.36821154     0.12500
C1092       C  0.20551290  0.14650718  0.42018416     0.63100
H1093       H  0.18279313  0.10227154  0.46636166     0.12500
C1094       C  0.24108811  0.00119964  0.43667930     0.55200
H1095       H  0.26275249  0.04512780  0.38630736     0.08300
C1096       C  0.28330523  0.12664872  0.36746928    -0.05500
C1097       C  0.29474759  0.14074605  0.33615713    -0.06200
C1098       C  0.27537808  0.13839701  0.30585199    -0.15800
C1099       C  0.24290510  0.12200831  0.30740615    -0.01400
C1100       C  0.23191516  0.10784033  0.33857037    -0.09000
C1101       C  0.30395978  0.13130753  0.39994975     0.65300
H1102       H  0.31889045  0.15405946  0.33516447     0.10800
C1103       C  0.21846936  0.11774195  0.27767196     0.63700
H1104       H  0.20742235  0.09502007  0.33978590     0.08100
F1105       F  0.25363498  0.99693698  0.46952914    -0.19400
F1106       F  0.26609417  0.99088740  0.41381656    -0.15600
F1107       F  0.21309136  0.98022969  0.43226856    -0.19100
F1108       F  0.17069894  0.14936261  0.41553032    -0.22400
F1109       F  0.22156764  0.16356997  0.39377972    -0.23900
F1110       F  0.21424382  0.16249345  0.45056687    -0.17900
F1111       F  0.21067464  0.08338208  0.27370950    -0.20400
F1112       F  0.23133545  0.12932058  0.24710637    -0.21600
F1113       F  0.18869636  0.13546118  0.28468292    -0.18700
F1114       F  0.33520740  0.14637626  0.39336560    -0.18800
F1115       F  0.30957775  0.09996163  0.41548091    -0.22700
F1116       F  0.28630528  0.15209082  0.42249833    -0.24300
C1117       C  0.38955747  0.09250569  0.17306678    -0.11100
C1118       C  0.42179672  0.10474918  0.18189628     0.11500
C1119       C  0.42480487  0.13314037  0.20426265    -0.02900
C1120       C  0.39488833  0.14794934  0.21758905    -0.05600
C1121       C  0.36247809  0.13492837  0.20968739    -0.16400
C1122       C  0.35970969  0.10676851  0.18674682     0.02500
C1123       C  0.45168416  0.08851445  0.16528717     0.12500
C1124       C  0.45937560  0.14733210  0.21441344     0.63100
H1125       H  0.39654798  0.16960992  0.23482195     0.12500
C1126       C  0.32658897  0.09052508  0.17519448     0.55200
H1127       H  0.38770916  0.07133067  0.15514259     0.08300
C1128       C  0.46584915  0.05727727  0.17718282    -0.05500
C1129       C  0.49461450  0.04387061  0.16019962    -0.06200
C1130       C  0.50868764  0.06041628  0.13156253    -0.15800
C1131       C  0.49327363  0.09057078  0.11859997    -0.01400
C1132       C  0.46479254  0.10410195  0.13573574    -0.09000
C1133       C  0.45060049  0.03836189  0.20757097     0.65300
H1134       H  0.50665214  0.02058906  0.16935273     0.10800
C1135       C  0.50708740  0.10844038  0.08698532     0.63700
H1136       H  0.45273621  0.12736289  0.12653525     0.08100
F1137       F  0.32661220  0.05626567  0.18428248    -0.19400
F1138       F  0.32421473  0.09273477  0.13988852    -0.15600
F1139       F  0.29806348  0.10569830  0.18912376    -0.19100
F1140       F  0.47720400  0.15755196  0.18562933    -0.22400
F1141       F  0.47793559  0.12239771  0.23131878    -0.23900
F1142       F  0.45636639  0.17539426  0.23594237    -0.17900
F1143       F  0.48661640  0.13561126  0.07699688    -0.20400
F1144       F  0.50890495  0.08548446  0.06003413    -0.21600
F1145       F  0.53922993  0.12106900  0.09372130    -0.18700
F1146       F  0.46901079  0.00915811  0.21567054    -0.18800
F1147       F  0.41760996  0.02852652  0.20013814    -0.22700
F1148       F  0.45021092  0.05947727  0.23596713    -0.24300
C1149       C  0.22723076  0.24902413  0.17352282    -0.11100
C1150       C  0.23914356  0.28215742  0.17955459     0.11500
C1151       C  0.26637858  0.28749206  0.20266355    -0.02900
C1152       C  0.28213895  0.25872848  0.21765651    -0.05600
C1153       C  0.27132020  0.22525956  0.21020896    -0.16400
C1154       C  0.24298101  0.22027533  0.18802868     0.02500
C1155       C  0.22295313  0.31050437  0.16026695     0.12500
C1156       C  0.27832246  0.32335403  0.21164776     0.63100
H1157       H  0.30297652  0.26207844  0.23548538     0.12500
C1158       C  0.22787835  0.18581760  0.17832986     0.55200
H1159       H  0.20574672  0.24553757  0.15640752     0.08300
C1160       C  0.23252910  0.31810816  0.12607425    -0.05500
C1161       C  0.21654263  0.34574490  0.10932934    -0.06200
C1162       C  0.19105688  0.36506202  0.12556003    -0.15800
C1163       C  0.18025869  0.35624475  0.15907785    -0.01400
C1164       C  0.19652068  0.32890001  0.17597646    -0.09000
C1165       C  0.25946843  0.29703989  0.10751005     0.65300
H1166       H  0.22420591  0.35293377  0.08362928     0.10800
C1167       C  0.15157726  0.37561634  0.17668365     0.63700
H1168       H  0.18897771  0.32178686  0.20173979     0.08100
F1169       F  0.22831846  0.18234076  0.14305426    -0.19400
F1170       F  0.19438488  0.18433382  0.18927585    -0.15600
F1171       F  0.24513181  0.15841106  0.19217074    -0.19100
F1172       F  0.25218849  0.34104836  0.22760118    -0.22400
F1173       F  0.28779324  0.34075481  0.18227116    -0.23900
F1174       F  0.30600479  0.32275233  0.23360712    -0.17900
F1175       F  0.12267110  0.37455382  0.15647346    -0.20400
F1176       F  0.16085093  0.40940667  0.18176199    -0.21600
F1177       F  0.14361894  0.36155184  0.20828281    -0.18700
F1178       F  0.26604342  0.30970897  0.07502747    -0.18800
F1179       F  0.24844227  0.26357306  0.10410686    -0.22700
F1180       F  0.28963965  0.29727754  0.12577191    -0.24300
C1181       C  0.35918255  0.22440692  0.13290391    -0.11100
C1182       C  0.38177510  0.24725349  0.14854273     0.11500
C1183       C  0.38228268  0.24976409  0.18467654    -0.02900
C1184       C  0.36161753  0.22735456  0.20399917    -0.05600
C1185       C  0.33962004  0.20348865  0.18843194    -0.16400
C1186       C  0.33794040  0.20256988  0.15201650     0.02500
C1187       C  0.40407545  0.26826635  0.12584654     0.12500
C1188       C  0.40380454  0.27659472  0.20258977     0.63100
H1189       H  0.36206682  0.22857666  0.23173266     0.12500
C1190       C  0.31441961  0.18001173  0.13142969     0.55200
H1191       H  0.35825262  0.22353935  0.10512248     0.08300
C1192       C  0.43443469  0.25480171  0.11143404    -0.05500
C1193       C  0.45188073  0.27419582  0.08649161    -0.06200
C1194       C  0.43961918  0.30610605  0.07513744    -0.15800
C1195       C  0.40995760  0.32016898  0.09065311    -0.01400
C1196       C  0.39267809  0.30083686  0.11572737    -0.09000
C1197       C  0.44742877  0.21939491  0.12120948     0.65300
H1198       H  0.47418113  0.26357300  0.07397487     0.10800
C1199       C  0.39463230  0.35466538  0.08121762     0.63700
H1200       H  0.36924240  0.31077958  0.12667888     0.08100
F1201       F  0.33340392  0.16015248  0.10905960    -0.19400
F1202       F  0.29246650  0.20045764  0.11264338    -0.15600
F1203       F  0.29536596  0.15853189  0.15148585    -0.19100
F1204       F  0.39308255  0.30894929  0.19284599    -0.22400
F1205       F  0.43770781  0.27264711  0.19383572    -0.23900
F1206       F  0.40113311  0.27427226  0.23790187    -0.17900
F1207       F  0.36231246  0.34976046  0.06802210    -0.20400
F1208       F  0.41363316  0.37257876  0.05739281    -0.21600
F1209       F  0.39212059  0.37462734  0.11042145    -0.18700
F1210       F  0.47850882  0.21213068  0.10600861    -0.18800
F1211       F  0.42437283  0.19472173  0.11092315    -0.22700
F1212       F  0.45157459  0.21732675  0.15628959    -0.24300
C1213       C  0.35100557  0.05427849  0.29997425    -0.11100
C1214       C  0.38114083  0.06607900  0.31506523     0.11500
C1215       C  0.39109445  0.10054630  0.31036771    -0.02900
C1216       C  0.36939088  0.12254814  0.29190896    -0.05600
C1217       C  0.33917464  0.11085001  0.27644313    -0.16400
C1218       C  0.32972460  0.07591797  0.28068278     0.02500
C1219       C  0.40163365  0.04128652  0.33537157     0.12500
C1220       C  0.42474465  0.11380777  0.32415891     0.63100
H1221       H  0.37593143  0.14936217  0.28922729     0.12500
C1222       C  0.29786038  0.05966088  0.26621099     0.55200
H1223       H  0.34394532  0.02761795  0.30345369     0.08300
C1224       C  0.39232220  0.03176345  0.36917482    -0.05500
C1225       C  0.41042318  0.00527154  0.38548208    -0.06200
C1226       C  0.43733909  0.98841853  0.36902726    -0.15800
C1227       C  0.44776761  0.99895462  0.33593550    -0.01400
C1228       C  0.42939279  0.02516209  0.31944208    -0.09000
C1229       C  0.36347970  0.04959477  0.38788487     0.65300
H1230       H  0.40291570  0.99656629  0.41075979     0.10800
C1231       C  0.47776377  0.98205472  0.31804154     0.63700
H1232       H  0.43584122  0.03250769  0.29351785     0.08100
F1233       F  0.27743952  0.04861414  0.29292720    -0.19400
F1234       F  0.30677238  0.03157895  0.24648375    -0.15600
F1235       F  0.27918184  0.08164728  0.24610758    -0.19100
F1236       F  0.45136690  0.09723459  0.30785195    -0.22400
F1237       F  0.42697057  0.10784610  0.35900109    -0.23900
F1238       F  0.42841655  0.14868622  0.31868966    -0.17900
F1239       F  0.47021178  0.94822483  0.31078304    -0.20400
F1240       F  0.50611517  0.98326784  0.33902379    -0.21600
F1241       F  0.48580149  0.99839713  0.28759093    -0.18700
F1242       F  0.35942484  0.03728693  0.42093811    -0.18800
F1243       F  0.33313986  0.04481111  0.37061765    -0.22700
F1244       F  0.37048516  0.08420173  0.38981422    -0.24300
C1245       C  0.94483081  0.22890151  0.28831092    -0.11100
C1246       C  0.93478797  0.25223937  0.31371083     0.11500
C1247       C  0.89986050  0.25541261  0.32213145    -0.02900
C1248       C  0.87623456  0.23415902  0.30542408    -0.05600
C1249       C  0.88621085  0.21030673  0.28033173    -0.16400
C1250       C  0.92124673  0.20755053  0.27161441     0.02500
C1251       C  0.96162962  0.27193209  0.33205925     0.12500
C1252       C  0.88758439  0.28140991  0.34833944     0.63100
H1253       H  0.84933436  0.23654343  0.31122039     0.12500
C1254       C  0.93554946  0.18277112  0.24548426     0.55200
H1255       H  0.97164338  0.22697929  0.28179614     0.08300
C1256       C  0.98082820  0.25699999  0.35895494    -0.05500
C1257       C  0.00556661  0.27696644  0.37566860    -0.06200
C1258       C  0.01249488  0.31073084  0.36543658    -0.15800
C1259       C  0.99401080  0.32537323  0.33792915    -0.01400
C1260       C  0.96841362  0.30578276  0.32189743    -0.09000
C1261       C  0.97588556  0.21976961  0.36912201     0.65300
H1262       H  0.02096576  0.26581382  0.39584543     0.10800
C1263       C  0.00219895  0.36112362  0.32507509     0.63700
H1264       H  0.95398234  0.31642285  0.30075168     0.08100
F1265       F  0.95939544  0.16181981  0.26113495    -0.19400
F1266       F  0.95140115  0.20105451  0.21961775    -0.15600
F1267       F  0.91104731  0.16217196  0.23106162    -0.19100
F1268       F  0.89516695  0.31415475  0.33713139    -0.22400
F1269       F  0.90340503  0.27568489  0.37946289    -0.23900
F1270       F  0.85271348  0.27953027  0.35344504    -0.17900
F1271       F  0.03551368  0.36222207  0.31350745    -0.20400
F1272       F  0.99817370  0.38446851  0.35143639    -0.21600
F1273       F  0.98111466  0.37083903  0.29834069    -0.18700
F1274       F  0.99462181  0.21114959  0.39791595    -0.18800
F1275       F  0.98611796  0.19863332  0.34258496    -0.22700
F1276       F  0.94194461  0.21384579  0.37617310    -0.24300
C1277       C  0.24410059  0.25198582  0.32160295    -0.11100
C1278       C  0.20946224  0.25280293  0.31315777     0.11500
C1279       C  0.19709509  0.23134148  0.28673856    -0.02900
C1280       C  0.21964485  0.20796213  0.27123530    -0.05600
C1281       C  0.25425737  0.20658059  0.28001443    -0.16400
C1282       C  0.26703535  0.22977600  0.30501263     0.02500
C1283       C  0.18643467  0.27547171  0.33324591     0.12500
C1284       C  0.16047620  0.23375323  0.27442680     0.63100
H1285       H  0.21061553  0.19122961  0.25125642     0.12500
C1286       C  0.30434246  0.23336304  0.31480908     0.55200
H1287       H  0.25340624  0.26922742  0.34126038     0.08300
C1288       C  0.17287502  0.26493010  0.36518206    -0.05500
C1289       C  0.14850899  0.28575816  0.38139007    -0.06200
C1290       C  0.13736601  0.31652460  0.36662152    -0.15800
C1291       C  0.15265040  0.32830844  0.33583956    -0.01400
C1292       C  0.17711636  0.30743289  0.31964071    -0.09000
C1293       C  0.18334075  0.23126065  0.38144112     0.65300
H1294       H  0.13638305  0.27719947  0.40484402     0.10800
C1295       C  0.14358393  0.36198655  0.31862616     0.63700
H1296       H  0.18832738  0.31568521  0.29559334     0.08100
F1297       F  0.30802721  0.22610768  0.34931954    -0.19400
F1298       F  0.31452418  0.26682690  0.30903552    -0.15600
F1299       F  0.32600118  0.21216783  0.29665293    -0.19100
F1300       F  0.15454194  0.26603945  0.26100614    -0.22400
F1301       F  0.13829647  0.22804724  0.30137436    -0.23900
F1302       F  0.15351878  0.20995705  0.24908200    -0.17900
F1303       F  0.17303318  0.38067137  0.31313447    -0.20400
F1304       F  0.12168837  0.38197043  0.33794385    -0.21600
F1305       F  0.12843554  0.35539171  0.28734534    -0.18700
F1306       F  0.16607686  0.22515180  0.41180114    -0.18800
F1307       F  0.21781044  0.23200498  0.38859157    -0.22700
F1308       F  0.17649682  0.20452888  0.35923007    -0.24300
C1309       C  0.46869687  0.80361342  0.81967964    -0.11100
C1310       C  0.45656045  0.77358634  0.83523109     0.11500
C1311       C  0.46960081  0.76356543  0.86750831    -0.02900
C1312       C  0.49374198  0.78446425  0.88374534    -0.05600
C1313       C  0.50624537  0.81420659  0.86809596    -0.16400
C1314       C  0.49338244  0.82429646  0.83562105     0.02500
C1315       C  0.42943008  0.75353412  0.81778301     0.12500
C1316       C  0.45988408  0.72963512  0.88342331     0.63100
H1317       H  0.50489481  0.77648725  0.90787476     0.12500
C1318       C  0.50512730  0.85600380  0.81643770     0.55200
H1319       H  0.45879327  0.81092945  0.79477571     0.08300
C1320       C  0.39471586  0.76250325  0.82123057    -0.05500
C1321       C  0.37010324  0.74160643  0.80569157    -0.06200
C1322       C  0.37884004  0.71231774  0.78665451    -0.15800
C1323       C  0.41378497  0.70367534  0.78264453    -0.01400
C1324       C  0.43848736  0.72455306  0.79843465    -0.09000
C1325       C  0.38375409  0.79405265  0.84131136     0.65300
H1326       H  0.34354204  0.74821302  0.80824793     0.10800
C1327       C  0.42673703  0.67335186  0.76202657     0.63700
H1328       H  0.46524552  0.71814648  0.79566162     0.08100
F1329       F  0.47701428  0.87531636  0.80708055    -0.19400
F1330       F  0.52235610  0.84612314  0.78710758    -0.15600
F1331       F  0.52627301  0.87670738  0.83568808    -0.19100
F1332       F  0.47130673  0.70362663  0.86229228    -0.22400
F1333       F  0.42491042  0.72755844  0.88700280    -0.23900
F1334       F  0.47438123  0.72507051  0.91544195    -0.17900
F1335       F  0.44901883  0.68490738  0.73709449    -0.20400
F1336       F  0.40120358  0.65521422  0.74593813    -0.21600
F1337       F  0.44404212  0.65120573  0.78356495    -0.18700
F1338       F  0.34867144  0.79772235  0.84213418    -0.18800
F1339       F  0.39727629  0.82314405  0.82632922    -0.22700
F1340       F  0.39514934  0.79170354  0.87474139    -0.24300
C1341       C  0.67567040  0.76587904  0.87101672    -0.11100
C1342       C  0.68585949  0.77715419  0.83842017     0.11500
C1343       C  0.66844684  0.80468041  0.82253818    -0.02900
C1344       C  0.64154001  0.82053285  0.84004971    -0.05600
C1345       C  0.63122877  0.80925220  0.87245239    -0.16400
C1346       C  0.64831430  0.78153775  0.88843196     0.02500
C1347       C  0.71530171  0.76020623  0.82158880     0.12500
C1348       C  0.67761931  0.81646560  0.78678952     0.63100
H1349       H  0.62742487  0.84123078  0.82808827     0.12500
C1350       C  0.63711434  0.76824731  0.92321782     0.55200
H1351       H  0.68924054  0.74459269  0.88255004     0.08300
C1352       C  0.74908143  0.76976479  0.82930566    -0.05500
C1353       C  0.77576592  0.75362324  0.81159867    -0.06200
C1354       C  0.76997595  0.72877956  0.78624385    -0.15800
C1355       C  0.73594622  0.71939180  0.77836083    -0.01400
C1356       C  0.70918597  0.73508689  0.79662350    -0.09000
C1357       C  0.75691556  0.79681226  0.85623592     0.65300
H1358       H  0.80166373  0.76016479  0.81791799     0.10800
C1359       C  0.72602702  0.69348501  0.75120058     0.63700
H1360       H  0.68307940  0.72798663  0.79101287     0.08100
F1361       F  0.64027634  0.79391245  0.94742016    -0.19400
F1362       F  0.65662218  0.74058177  0.93378847    -0.15600
F1363       F  0.60346819  0.75785957  0.92173902    -0.19100
F1364       F  0.67138150  0.79012805  0.76401043    -0.22400
F1365       F  0.71166352  0.82531020  0.78550838    -0.23900
F1366       F  0.65868260  0.84468978  0.77664895    -0.17900
F1367       F  0.70742556  0.66740567  0.76625433    -0.20400
F1368       F  0.75357401  0.67901186  0.73463380    -0.21600
F1369       F  0.70590130  0.70949562  0.72688294    -0.18700
F1370       F  0.79149803  0.80334026  0.85858244    -0.18800
F1371       F  0.74571327  0.78580305  0.88797831    -0.22700
F1372       F  0.74074207  0.82727248  0.84814683    -0.24300
C1373       C  0.20415215  0.32437220  0.82061923    -0.11100
C1374       C  0.23217751  0.30994547  0.83759982     0.11500
C1375       C  0.24081048  0.32142715  0.87095065    -0.02900
C1376       C  0.22168222  0.34809446  0.88567875    -0.05600
C1377       C  0.19490997  0.36363599  0.86781035    -0.16400
C1378       C  0.18516885  0.35114919  0.83529319     0.02500
C1379       C  0.25407591  0.28574780  0.81815261     0.12500
C1380       C  0.27061634  0.30629469  0.89044014     0.63100
H1381       H  0.22858562  0.35830350  0.91053397     0.12500
C1382       C  0.15555443  0.36687987  0.81586818     0.55200
H1383       H  0.19824402  0.31555325  0.79504314     0.08300
C1384       C  0.24516591  0.25109957  0.81283000    -0.05500
C1385       C  0.26730763  0.23030371  0.79351428    -0.06200
C1386       C  0.29723533  0.24321728  0.77827861    -0.15800
C1387       C  0.30581836  0.27825323  0.78359276    -0.01400
C1388       C  0.28387595  0.29875385  0.80335165    -0.09000
C1389       C  0.21239202  0.23625182  0.82725808     0.65300
H1390       H  0.26149110  0.20338684  0.79022138     0.10800
C1391       C  0.33738128  0.29584922  0.76998789     0.63700
H1392       H  0.29004682  0.32557332  0.80725816     0.08100
F1393       F  0.12682124  0.36723316  0.83644442    -0.19400
F1394       F  0.14799532  0.34859370  0.78646202    -0.15600
F1395       F  0.16349331  0.40007428  0.80644132    -0.19100
F1396       F  0.30070005  0.31394979  0.87369502    -0.22400
F1397       F  0.26689078  0.27117813  0.89254187    -0.23900
F1398       F  0.27271690  0.31904331  0.92349389    -0.17900
F1399       F  0.32792420  0.32444063  0.75123571    -0.20400
F1400       F  0.35678755  0.27511459  0.74927955    -0.21600
F1401       F  0.35725573  0.30639502  0.79726059    -0.18700
F1402       F  0.20995096  0.20135043  0.82128111    -0.18800
F1403       F  0.18469397  0.25199578  0.81203349    -0.22700
F1404       F  0.21091703  0.24148630  0.86226520    -0.24300
C1405       C  0.24019205  0.60590043  0.82684415    -0.11100
C1406       C  0.24990146  0.57167140  0.82262764     0.11500
C1407       C  0.27720232  0.56308289  0.80055112    -0.02900
C1408       C  0.29473417  0.58968531  0.78403948    -0.05600
C1409       C  0.28538218  0.62410629  0.78849768    -0.16400
C1410       C  0.25718996  0.63249902  0.80982385     0.02500
C1411       C  0.22989612  0.54511977  0.84040191     0.12500
C1412       C  0.28735914  0.52600831  0.79409846     0.63100
H1413       H  0.31579384  0.58375140  0.76723283     0.12500
C1414       C  0.24337915  0.66847672  0.81560644     0.55200
H1415       H  0.21870125  0.61184396  0.84333521     0.08300
C1416       C  0.23762333  0.53447172  0.87415121    -0.05500
C1417       C  0.21970744  0.50646702  0.88787187    -0.06200
C1418       C  0.19388411  0.49012905  0.86919751    -0.15800
C1419       C  0.18418319  0.50295323  0.83662956    -0.01400
C1420       C  0.20280350  0.53016199  0.82261233    -0.09000
C1421       C  0.26436097  0.55282804  0.89544071     0.65300
H1422       H  0.22620214  0.49657032  0.91298622     0.10800
C1423       C  0.15480205  0.48914311  0.81546746     0.63700
H1424       H  0.19649286  0.53955040  0.79720727     0.08100
F1425       F  0.24620287  0.67661153  0.84997563    -0.19400
F1426       F  0.20926848  0.66933266  0.80673470    -0.15600
F1427       F  0.25989733  0.69342581  0.79681047    -0.19100
F1428       F  0.26067146  0.50876826  0.77878704    -0.22400
F1429       F  0.29535704  0.51000468  0.82466628    -0.23900
F1430       F  0.31545390  0.52354936  0.77273166    -0.17900
F1431       F  0.13251948  0.51568841  0.80814454    -0.20400
F1432       F  0.13648681  0.46372844  0.83185164    -0.21600
F1433       F  0.16732526  0.47608126  0.78499712    -0.18700
F1434       F  0.26893330  0.53734273  0.92704669    -0.18800
F1435       F  0.25418142  0.58634150  0.90092879    -0.22700
F1436       F  0.29538168  0.55291200  0.87862097    -0.24300
C1437       C  0.67917494  0.12127903  0.88284936    -0.11100
C1438       C  0.68510097  0.10565780  0.85096316     0.11500
C1439       C  0.66910687  0.07412765  0.84315806    -0.02900
C1440       C  0.64572319  0.06043948  0.86677680    -0.05600
C1441       C  0.63824060  0.07702682  0.89783206    -0.16400
C1442       C  0.65583653  0.10744946  0.90660683     0.02500
C1443       C  0.70883550  0.12235985  0.82641952     0.12500
C1444       C  0.67633363  0.05533538  0.80978910     0.63100
H1445       H  0.63192586  0.03723808  0.86055068     0.12500
C1446       C  0.65038958  0.12476106  0.94102926     0.55200
H1447       H  0.69244693  0.14484945  0.88861215     0.08300
C1448       C  0.69881090  0.14998340  0.80510375    -0.05500
C1449       C  0.72281544  0.16383200  0.78209043    -0.06200
C1450       C  0.75602215  0.15053434  0.77930791    -0.15800
C1451       C  0.76579538  0.12267705  0.80077769    -0.01400
C1452       C  0.74202289  0.10953371  0.82419824    -0.09000
C1453       C  0.66296413  0.16465199  0.80665861     0.65300
H1454       H  0.71608982  0.18582762  0.76663170     0.10800
C1455       C  0.80075209  0.10590225  0.80131434     0.63700
H1456       H  0.74945338  0.08867679  0.84104259     0.08100
F1457       F  0.61755267  0.13732661  0.94352058    -0.19400
F1458       F  0.67259255  0.15190347  0.94574998    -0.15600
F1459       F  0.65582467  0.10126567  0.96703501    -0.19100
F1460       F  0.70987332  0.04447871  0.80920939    -0.22400
F1461       F  0.67060762  0.07682899  0.78218958    -0.23900
F1462       F  0.65580188  0.02677695  0.80594924    -0.17900
F1463       F  0.81470243  0.10939627  0.83366045    -0.20400
F1464       F  0.82339485  0.11945418  0.77805653    -0.21600
F1465       F  0.79726325  0.07134945  0.79413614    -0.18700
F1466       F  0.65829239  0.19080431  0.78309311    -0.18800
F1467       F  0.65660381  0.17776534  0.83892484    -0.22700
F1468       F  0.63950523  0.13920051  0.79968832    -0.24300
C1469       C  0.40061846  0.13043605  0.84579548    -0.11100
C1470       C  0.43237644  0.12025425  0.83279838     0.11500
C1471       C  0.43635320  0.11906694  0.79669253    -0.02900
C1472       C  0.41356490  0.13772202  0.77621437    -0.05600
C1473       C  0.38234848  0.14957308  0.78915986    -0.16400
C1474       C  0.37434504  0.14181201  0.82408122     0.02500
C1475       C  0.46050681  0.11100084  0.85696435     0.12500
C1476       C  0.46187683  0.09640804  0.77843050     0.63100
H1477       H  0.41982421  0.14156057  0.74922536     0.12500
C1478       C  0.33863714  0.14149784  0.83921414     0.55200
H1479       H  0.39572066  0.12844623  0.87317859     0.08300
C1480       C  0.49428232  0.12286445  0.85229967    -0.05500
C1481       C  0.52053592  0.10588160  0.86935776    -0.06200
C1482       C  0.51464872  0.08363548  0.89731342    -0.15800
C1483       C  0.48006450  0.07786704  0.90707058    -0.01400
C1484       C  0.45389925  0.08894741  0.88480081    -0.09000
C1485       C  0.50470948  0.15316252  0.83017802     0.65300
H1486       H  0.54599538  0.11089910  0.86014968     0.10800
C1487       C  0.46907459  0.06218809  0.94094602     0.63700
H1488       H  0.42795144  0.08099558  0.88989855     0.08100
F1489       F  0.33024682  0.10803049  0.84732337    -0.19400
F1490       F  0.31396352  0.15389313  0.81724284    -0.15600
F1491       F  0.33786718  0.16040673  0.86914836    -0.19100
F1492       F  0.48206080  0.07728703  0.80023224    -0.22400
F1493       F  0.48250302  0.11618977  0.75759831    -0.23900
F1494       F  0.44391197  0.07346685  0.75849545    -0.17900
F1495       F  0.44128838  0.07995519  0.95381867    -0.20400
F1496       F  0.49440384  0.06397774  0.96547425    -0.21600
F1497       F  0.45960463  0.02841582  0.93596304    -0.18700
F1498       F  0.52405092  0.17541737  0.84971593    -0.18800
F1499       F  0.47733941  0.17148576  0.81769093    -0.22700
F1500       F  0.52453798  0.14194456  0.80309871    -0.24300
C1501       C  0.89966857  0.61315409  0.83579892    -0.11100
C1502       C  0.89038044  0.58030869  0.82521331     0.11500
C1503       C  0.86467164  0.57599201  0.80026002    -0.02900
C1504       C  0.85044470  0.60540127  0.78507033    -0.05600
C1505       C  0.86094611  0.63852754  0.79442375    -0.16400
C1506       C  0.88572484  0.64255035  0.82069156     0.02500
C1507       C  0.90928101  0.55102239  0.83982742     0.12500
C1508       C  0.85274004  0.54053407  0.78956093     0.63100
H1509       H  0.83131716  0.60277035  0.76530056     0.12500
C1510       C  0.89917741  0.67652456  0.83386621     0.55200
H1511       H  0.91897152  0.61582767  0.85550647     0.08300
C1512       C  0.94097767  0.54047744  0.82598727    -0.05500
C1513       C  0.95701235  0.51151055  0.84003991    -0.06200
C1514       C  0.94260275  0.49381635  0.86770261    -0.15800
C1515       C  0.91183063  0.50539150  0.88267420    -0.01400
C1516       C  0.89558185  0.53416919  0.86842384    -0.09000
C1517       C  0.95767457  0.55981712  0.79660343     0.65300
H1518       H  0.98066919  0.50204198  0.82923862     0.10800
C1519       C  0.89619571  0.48694497  0.91314507     0.63700
H1520       H  0.87174378  0.54340577  0.87902274     0.08100
F1521       F  0.93412148  0.67757056  0.82937509    -0.19400
F1522       F  0.89242018  0.67913985  0.86853879    -0.15600
F1523       F  0.88519170  0.70462121  0.81769451    -0.19100
F1524       F  0.84067341  0.52285773  0.81777086    -0.22400
F1525       F  0.87948135  0.52230354  0.77537899    -0.23900
F1526       F  0.82679151  0.54220312  0.76561092    -0.17900
F1527       F  0.86670808  0.50289639  0.92440374    -0.20400
F1528       F  0.91913576  0.48643185  0.94001974    -0.21600
F1529       F  0.88818274  0.45361218  0.90420491    -0.18700
F1530       F  0.98770699  0.54434330  0.78617619    -0.18800
F1531       F  0.96519359  0.59287410  0.80681992    -0.22700
F1532       F  0.93598489  0.56116125  0.76877918    -0.24300
C1533       C  0.93672628  0.33115676  0.80665181    -0.11100
C1534       C  0.90631537  0.31903647  0.82123573     0.11500
C1535       C  0.89588267  0.33137910  0.85377150    -0.02900
C1536       C  0.91616387  0.35577018  0.87058188    -0.05600
C1537       C  0.94588194  0.36871589  0.85555890    -0.16400
C1538       C  0.95634281  0.35662092  0.82297616     0.02500
C1539       C  0.88628048  0.29251900  0.80265564     0.12500
C1540       C  0.86287146  0.31959846  0.87014718     0.63100
H1541       H  0.90822181  0.36612431  0.89509073     0.12500
C1542       C  0.98770265  0.37113165  0.80546622     0.55200
H1543       H  0.94455422  0.32100845  0.78203374     0.08300
C1544       C  0.86394656  0.30043640  0.77523801    -0.05500
C1545       C  0.84398761  0.27394845  0.76101363    -0.06200
C1546       C  0.84651988  0.23992788  0.77265921    -0.15800
C1547       C  0.87005301  0.23203980  0.79927799    -0.01400
C1548       C  0.88918680  0.25861341  0.81385507    -0.09000
C1549       C  0.86164276  0.33651986  0.76082011     0.65300
H1550       H  0.82663594  0.27946375  0.74020251     0.10800
C1551       C  0.87681795  0.19644419  0.81344176     0.63700
H1552       H  0.90684059  0.25279793  0.83444379     0.08100
F1553       F  0.98334579  0.40583173  0.79953654    -0.19400
F1554       F  0.99394482  0.35539875  0.77428691    -0.15600
F1555       F  0.01586444  0.36631761  0.82618949    -0.19100
F1556       F  0.86508353  0.28517121  0.87824692    -0.22400
F1557       F  0.83623568  0.32472763  0.84758021    -0.23900
F1558       F  0.85563441  0.33747577  0.89994149    -0.17900
F1559       F  0.91122893  0.18914665  0.81075965    -0.20400
F1560       F  0.85937807  0.17100886  0.79658328    -0.21600
F1561       F  0.86769962  0.19561600  0.84769927    -0.18700
F1562       F  0.83678686  0.33919975  0.73580728    -0.18800
F1563       F  0.89251103  0.34545274  0.74625557    -0.22700
F1564       F  0.85384917  0.35952701  0.78662244    -0.24300
C1565       C  0.89313744  0.33171108  0.13648073    -0.11100
C1566       C  0.91232634  0.31588675  0.16233483     0.11500
C1567       C  0.94668926  0.32569682  0.16774360    -0.02900
C1568       C  0.95981428  0.35306599  0.14843022    -0.05600
C1569       C  0.93996921  0.37000385  0.12381673    -0.16400
C1570       C  0.90653705  0.35858277  0.11677602     0.02500
C1571       C  0.89553076  0.28812500  0.18159875     0.12500
C1572       C  0.97066806  0.30843009  0.19302997     0.63100
H1573       H  0.98562750  0.36178225  0.15307504     0.12500
C1574       C  0.88535511  0.37449031  0.08834335     0.55200
H1575       H  0.86729045  0.32300642  0.13215444     0.08300
C1576       C  0.87864451  0.29408025  0.21303600    -0.05500
C1577       C  0.86157769  0.26666371  0.22867842    -0.06200
C1578       C  0.86115379  0.23378888  0.21404809    -0.15800
C1579       C  0.87839997  0.22792280  0.18250105    -0.01400
C1580       C  0.89502094  0.25552371  0.16673795    -0.09000
C1581       C  0.87844174  0.32923150  0.22973822     0.65300
H1582       H  0.84837520  0.27073309  0.25264183     0.10800
C1583       C  0.88072450  0.19366210  0.16408220     0.63700
H1584       H  0.90795191  0.25159926  0.14245504     0.08100
F1585       F  0.87678552  0.40780616  0.09675189    -0.19400
F1586       F  0.85549211  0.35649815  0.08279846    -0.15600
F1587       F  0.90379492  0.37447572  0.05809660    -0.19100
F1588       F  0.99791878  0.29459163  0.17524407    -0.22400
F1589       F  0.95558427  0.28242977  0.21170416    -0.23900
F1590       F  0.98287383  0.33258974  0.21585516    -0.17900
F1591       F  0.86587312  0.19670974  0.13209465    -0.20400
F1592       F  0.86506526  0.16709291  0.18132611    -0.21600
F1593       F  0.91463293  0.18499845  0.15961100    -0.18700
F1594       F  0.86057877  0.32926962  0.26037871    -0.18800
F1595       F  0.86332441  0.35276735  0.20800704    -0.22700
F1596       F  0.91143032  0.33945728  0.23655587    -0.24300
C1597       C  0.87354710  0.56040014  0.20755880    -0.11100
C1598       C  0.88947690  0.57282373  0.17789736     0.11500
C1599       C  0.88524659  0.60755861  0.16847348    -0.02900
C1600       C  0.86582215  0.62897345  0.18987674    -0.05600
C1601       C  0.84957079  0.61665279  0.21956817    -0.16400
C1602       C  0.85332584  0.58153455  0.22852340     0.02500
C1603       C  0.90887243  0.54820245  0.15635250     0.12500
C1604       C  0.90085732  0.62181826  0.13581271     0.63100
H1605       H  0.86263311  0.65574165  0.18323362     0.12500
C1606       C  0.83656040  0.56441763  0.25900574     0.55200
H1607       H  0.87632788  0.53347519  0.21400880     0.08300
C1608       C  0.94187119  0.53652336  0.16528671    -0.05500
C1609       C  0.95733999  0.51099779  0.14515122    -0.06200
C1610       C  0.94025671  0.49611032  0.11741269    -0.15800
C1611       C  0.90765630  0.50851374  0.10783647    -0.01400
C1612       C  0.89263480  0.53452821  0.12754394    -0.09000
C1613       C  0.95911127  0.54822478  0.19785794     0.65300
H1614       H  0.98176873  0.50039613  0.15263935     0.10800
C1615       C  0.88702806  0.49480091  0.07799051     0.63700
H1616       H  0.86729457  0.54340498  0.12110250     0.08100
F1617       F  0.86136971  0.55270969  0.28118225    -0.19400
F1618       F  0.81772015  0.53665831  0.24787474    -0.15600
F1619       F  0.81518174  0.58588000  0.27686314    -0.19100
F1620       F  0.88628063  0.60619930  0.10764124    -0.22400
F1621       F  0.93558593  0.61578957  0.13555737    -0.23900
F1622       F  0.89566063  0.65681884  0.13278464    -0.17900
F1623       F  0.85683796  0.48124863  0.09026271    -0.20400
F1624       F  0.90375676  0.46971389  0.05945613    -0.21600
F1625       F  0.87952445  0.52150604  0.05588003    -0.18700
F1626       F  0.99273452  0.53750577  0.19947275    -0.18800
F1627       F  0.94186447  0.53433733  0.22539097    -0.22700
F1628       F  0.95861955  0.58360292  0.20008390    -0.24300
C1629       C  0.68081185  0.79526589  0.16236968    -0.11100
C1630       C  0.68637129  0.76044906  0.15535042     0.11500
C1631       C  0.66624041  0.74363076  0.13043329    -0.02900
C1632       C  0.64071059  0.76241351  0.11348635    -0.05600
C1633       C  0.63406799  0.79686056  0.12154891    -0.16400
C1634       C  0.65466999  0.81386875  0.14604044     0.02500
C1635       C  0.71127763  0.74146496  0.17676822     0.12500
C1636       C  0.67002104  0.70547173  0.12353217     0.63100
H1637       H  0.62412434  0.74970504  0.09533376     0.12500
C1638       C  0.64799965  0.85086283  0.15620806     0.55200
H1639       H  0.69626425  0.80732666  0.18191437     0.08300
C1640       C  0.74665316  0.74183534  0.17007912    -0.05500
C1641       C  0.76821514  0.72206328  0.19102147    -0.06200
C1642       C  0.75568479  0.70254019  0.21863016    -0.15800
C1643       C  0.72021352  0.70347829  0.22600532    -0.01400
C1644       C  0.69874336  0.72294761  0.20478038    -0.09000
C1645       C  0.76153937  0.76351135  0.14143899     0.65300
H1646       H  0.79544115  0.72222812  0.18646607     0.10800
C1647       C  0.70314927  0.68522044  0.25554330     0.63700
H1648       H  0.67160950  0.72371284  0.21011867     0.08100
F1649       F  0.65249693  0.87206636  0.12818649    -0.19400
F1650       F  0.66991879  0.86171899  0.18176500    -0.15600
F1651       F  0.61502577  0.85430500  0.16823721    -0.19100
F1652       F  0.65824278  0.68716749  0.15148436    -0.22400
F1653       F  0.70381801  0.69722002  0.11784190    -0.23900
F1654       F  0.65159760  0.69540791  0.09503224    -0.17900
F1655       F  0.68810067  0.70918931  0.27685248    -0.20400
F1656       F  0.72540227  0.66597713  0.27466435    -0.21600
F1657       F  0.67810939  0.66371151  0.24300434    -0.18700
F1658       F  0.79635799  0.75869875  0.13815276    -0.18800
F1659       F  0.75572185  0.79781692  0.14822732    -0.22700
F1660       F  0.74649364  0.75507234  0.11056832    -0.24300
C1661       C  0.46940840  0.79285553  0.17500170    -0.11100
C1662       C  0.45353647  0.76473828  0.15944211     0.11500
C1663       C  0.46436145  0.75377531  0.12652238    -0.02900
C1664       C  0.49193613  0.77076757  0.11077780    -0.05600
C1665       C  0.50834668  0.79836585  0.12680015    -0.16400
C1666       C  0.49696332  0.80975142  0.15931172     0.02500
C1667       C  0.42461655  0.74819681  0.17763853     0.12500
C1668       C  0.44687984  0.72422505  0.10829262     0.63100
H1669       H  0.50128143  0.76234593  0.08603814     0.12500
C1670       C  0.51412630  0.83953474  0.17731217     0.55200
H1671       H  0.46013290  0.80127166  0.19976329     0.08300
C1672       C  0.42935481  0.72374035  0.20404095    -0.05500
C1673       C  0.40045700  0.70814162  0.21867042    -0.06200
C1674       C  0.36719892  0.71721993  0.20878372    -0.15800
C1675       C  0.36270654  0.74270171  0.18305519    -0.01400
C1676       C  0.39161112  0.75766600  0.16808549    -0.09000
C1677       C  0.46466183  0.71466146  0.21710591     0.65300
H1678       H  0.40363445  0.68875667  0.23822565     0.10800
C1679       C  0.32864066  0.75550206  0.16993924     0.63700
H1680       H  0.38839040  0.77703218  0.14836756     0.08100
F1681       F  0.54779463  0.83154095  0.18394700    -0.19400
F1682       F  0.49853691  0.84724047  0.20819042    -0.15600
F1683       F  0.51270737  0.86835895  0.15669494    -0.19100
F1684       F  0.41349584  0.73294412  0.10106650    -0.22400
F1685       F  0.44719356  0.69534892  0.12886017    -0.23900
F1686       F  0.46286881  0.71609991  0.07769914    -0.17900
F1687       F  0.32614880  0.79037496  0.17577059    -0.20400
F1688       F  0.30116178  0.73981790  0.18520464    -0.21600
F1689       F  0.32672229  0.74989189  0.13500735    -0.18700
F1690       F  0.46364221  0.68878792  0.24141710    -0.18800
F1691       F  0.47924939  0.74317483  0.23209859    -0.22700
F1692       F  0.48505329  0.70375331  0.19032133    -0.24300
C1693       C  0.88978183  0.80177889  0.38987216    -0.11100
C1694       C  0.90746069  0.77622113  0.37201430     0.11500
C1695       C  0.94284676  0.77178707  0.37754736    -0.02900
C1696       C  0.95846193  0.79033100  0.40427562    -0.05600
C1697       C  0.93989498  0.81383369  0.42424756    -0.16400
C1698       C  0.90559479  0.82127006  0.41548733     0.02500
C1699       C  0.88774880  0.75389553  0.34855616     0.12500
C1700       C  0.96368226  0.74742461  0.35550400     0.63100
H1701       H  0.98481552  0.78539074  0.41088629     0.12500
C1702       C  0.88436546  0.84893837  0.43261592     0.55200
H1703       H  0.86302625  0.80598883  0.38427356     0.08300
C1704       C  0.86980554  0.72484284  0.36068644    -0.05500
C1705       C  0.85109220  0.70513142  0.33720969    -0.06200
C1706       C  0.84946857  0.71372947  0.30235349    -0.15800
C1707       C  0.86695940  0.74341701  0.29038219    -0.01400
C1708       C  0.88573475  0.76295641  0.31393847    -0.09000
C1709       C  0.87004115  0.71502484  0.39836519     0.65300
H1710       H  0.83737351  0.68276707  0.34596348     0.10800
C1711       C  0.86718236  0.75614097  0.25352405     0.63700
H1712       H  0.89905709  0.78569711  0.30519924     0.08100
F1713       F  0.85811469  0.83382683  0.45080660    -0.19400
F1714       F  0.87056326  0.87006174  0.40769614    -0.15600
F1715       F  0.90304121  0.86930152  0.45463015    -0.19100
F1716       F  0.96257525  0.75819825  0.32174531    -0.22400
F1717       F  0.95070849  0.71455046  0.35758454    -0.23900
F1718       F  0.99748269  0.74640873  0.36556858    -0.17900
F1719       F  0.85342706  0.78880849  0.25242437    -0.20400
F1720       F  0.84905283  0.73570186  0.23122288    -0.21600
F1721       F  0.90045640  0.75776761  0.24189902    -0.18700
F1722       F  0.85215224  0.68504365  0.40439027    -0.18800
F1723       F  0.85513030  0.74084334  0.41749286    -0.22700
F1724       F  0.90313294  0.71012233  0.40943334    -0.24300
C1725       C  0.93748740  0.75521028  0.59204142    -0.11100
C1726       C  0.90859526  0.76973848  0.60741938     0.11500
C1727       C  0.89510139  0.80087826  0.59448096    -0.02900
C1728       C  0.91088924  0.81618926  0.56590994    -0.05600
C1729       C  0.93970394  0.80149496  0.55040691    -0.16400
C1730       C  0.95320457  0.77031713  0.56341493     0.02500
C1731       C  0.89409475  0.75278924  0.63824618     0.12500
C1732       C  0.86423819  0.81778128  0.61089852     0.63100
H1733       H  0.90089430  0.83988168  0.55540455     0.12500
C1734       C  0.98357193  0.75144982  0.54818769     0.55200
H1735       H  0.94790192  0.73166849  0.60256425     0.08300
C1736       C  0.87251019  0.72382398  0.63630773    -0.05500
C1737       C  0.85872028  0.71045931  0.66688906    -0.06200
C1738       C  0.86570202  0.72526138  0.69899289    -0.15800
C1739       C  0.88853613  0.75352954  0.70072835    -0.01400
C1740       C  0.90242372  0.76646314  0.67023187    -0.09000
C1741       C  0.86362737  0.70763456  0.60208792     0.65300
H1742       H  0.84176010  0.68862631  0.66595265     0.10800
C1743       C  0.89957041  0.77149586  0.73334397     0.63700
H1744       H  0.91976178  0.78807754  0.67132303     0.08100
F1745       F  0.97308314  0.71955059  0.53692109    -0.19400
F1746       F  0.00808808  0.74701835  0.57324802    -0.15600
F1747       F  0.99855638  0.76828899  0.52091870    -0.19100
F1748       F  0.87234322  0.82890395  0.64350398    -0.22400
F1749       F  0.83780776  0.79453505  0.61300957    -0.23900
F1750       F  0.85301879  0.84581018  0.59223182    -0.17900
F1751       F  0.93467318  0.77005458  0.73606184    -0.20400
F1752       F  0.88580623  0.75742609  0.76262520    -0.21600
F1753       F  0.89011205  0.80558487  0.73170006    -0.18700
F1754       F  0.84215748  0.67976444  0.60595142    -0.18800
F1755       F  0.89291270  0.69641545  0.58588466    -0.22700
F1756       F  0.84753129  0.73144033  0.58139825    -0.24300
C1757       C  0.93762960  0.10365617  0.60739400    -0.11100
C1758       C  0.90674915  0.08842081  0.61724035     0.11500
C1759       C  0.89659559  0.05717194  0.60172985    -0.02900
C1760       C  0.91714280  0.04311752  0.57564938    -0.05600
C1761       C  0.94744671  0.05900906  0.56525794    -0.16400
C1762       C  0.95859202  0.08903833  0.58203997     0.02500
C1763       C  0.88451263  0.10732936  0.64180095     0.12500
C1764       C  0.86440951  0.03865788  0.61277951     0.63100
H1765       H  0.90915562  0.02016447  0.56228218     0.12500
C1766       C  0.99231589  0.10559351  0.57276856     0.55200
H1767       H  0.94476996  0.12768336  0.61913941     0.08300
C1768       C  0.89221862  0.11012107  0.67710687    -0.05500
C1769       C  0.87072261  0.13006340  0.69803068    -0.06200
C1770       C  0.84211319  0.14748953  0.68495159    -0.15800
C1771       C  0.83401335  0.14389335  0.64967233    -0.01400
C1772       C  0.85575960  0.12426376  0.62874921    -0.09000
C1773       C  0.92279148  0.09200003  0.69273311     0.65300
H1774       H  0.87615609  0.13240792  0.72513310     0.10800
C1775       C  0.80299377  0.15924874  0.63246064     0.63700
H1776       H  0.85031621  0.12225998  0.60157997     0.08100
F1777       F  0.99967733  0.13311574  0.59387630    -0.19400
F1778       F  0.99140186  0.11722778  0.53931159    -0.15600
F1779       F  0.01826927  0.08177098  0.57609824    -0.19100
F1780       F  0.83600412  0.05838010  0.60566517    -0.22400
F1781       F  0.86581967  0.03224955  0.64757593    -0.23900
F1782       F  0.86066142  0.00758817  0.59606061    -0.17900
F1783       F  0.81297165  0.17769760  0.60387700    -0.20400
F1784       F  0.78488450  0.18089044  0.65349436    -0.21600
F1785       F  0.78167977  0.13301959  0.62210554    -0.18700
F1786       F  0.92385738  0.09589763  0.72798828    -0.18800
F1787       F  0.95261954  0.10528408  0.67943371    -0.22700
F1788       F  0.92131891  0.05731638  0.68561714    -0.24300
C1789       C  0.89880383  0.09819554  0.32422838    -0.11100
C1790       C  0.89913790  0.11145276  0.35750920     0.11500
C1791       C  0.88052033  0.14156438  0.36522903    -0.02900
C1792       C  0.86186383  0.15743880  0.33887449    -0.05600
C1793       C  0.86103774  0.14396221  0.30550756    -0.16400
C1794       C  0.87975970  0.11360912  0.29798209     0.02500
C1795       C  0.91825569  0.09252102  0.38417333     0.12500
C1796       C  0.88024308  0.15663679  0.40119047     0.63100
H1797       H  0.84791573  0.18075124  0.34413014     0.12500
C1798       C  0.88101343  0.09599271  0.26324293     0.55200
H1799       H  0.91331907  0.07511811  0.31881045     0.08300
C1800       C  0.90342594  0.06463990  0.40189292    -0.05500
C1801       C  0.92122301  0.05002630  0.42938041    -0.06200
C1802       C  0.95321689  0.06231439  0.43920853    -0.15800
C1803       C  0.96902643  0.08885789  0.42031967    -0.01400
C1804       C  0.95122786  0.10346092  0.39261455    -0.09000
C1805       C  0.86867615  0.05095882  0.39215351     0.65300
H1806       H  0.90988576  0.02947173  0.44418948     0.10800
C1807       C  0.00375829  0.10246750  0.43039054     0.63700
H1808       H  0.96224021  0.12447672  0.37821795     0.08100
F1809       F  0.86851428  0.06301218  0.26657970    -0.19400
F1810       F  0.91450476  0.09408449  0.25228332    -0.15600
F1811       F  0.86239178  0.11242719  0.23813360    -0.19100
F1812       F  0.91297188  0.16492054  0.41105568    -0.22400
F1813       F  0.86726190  0.13313058  0.42424141    -0.23900
F1814       F  0.86051350  0.18604443  0.40307215    -0.17900
F1815       F  0.01515712  0.12737488  0.40783653    -0.20400
F1816       F  0.02728709  0.07603211  0.43053291    -0.21600
F1817       F  0.00200002  0.11672180  0.46278331    -0.18700
F1818       F  0.85839556  0.02451017  0.41345175    -0.18800
F1819       F  0.86965799  0.03863477  0.35896228    -0.22700
F1820       F  0.84478770  0.07690339  0.39432952    -0.24300
C1821       C  0.19723155  0.75102320  0.60961173    -0.11100
C1822       C  0.22745948  0.76566615  0.62186855     0.11500
C1823       C  0.23956978  0.79659856  0.60729304    -0.02900
C1824       C  0.22122525  0.81173884  0.58039480    -0.05600
C1825       C  0.19199051  0.79625514  0.56712014    -0.16400
C1826       C  0.17924848  0.76583987  0.58212775     0.02500
C1827       C  0.24733389  0.74673374  0.64815844     0.12500
C1828       C  0.27321259  0.81186941  0.61815223     0.63100
H1829       H  0.23072468  0.83468725  0.56799819     0.12500
C1830       C  0.14731005  0.74889493  0.56847694     0.55200
H1831       H  0.18856739  0.72722248  0.62094456     0.08300
C1832       C  0.24008906  0.74944440  0.68350728    -0.05500
C1833       C  0.26082530  0.73153207  0.70676623    -0.06200
C1834       C  0.28821413  0.71091742  0.69591089    -0.15800
C1835       C  0.29459189  0.70725358  0.66029887    -0.01400
C1836       C  0.27393117  0.72537174  0.63707937    -0.09000
C1837       C  0.21033179  0.77073492  0.69651242     0.65300
H1838       H  0.25526293  0.73284967  0.73389370     0.10800
C1839       C  0.32188526  0.68442917  0.64497769     0.63700
H1840       H  0.27862285  0.72285195  0.60978766     0.08100
F1841       F  0.12053298  0.77198488  0.56943470    -0.19400
F1842       F  0.13828581  0.72044190  0.58767215    -0.15600
F1843       F  0.15255157  0.73848326  0.53500803    -0.19100
F1844       F  0.29884341  0.78935198  0.60916439    -0.22400
F1845       F  0.27365962  0.81707223  0.65318775    -0.23900
F1846       F  0.27952464  0.84300307  0.60228589    -0.17900
F1847       F  0.30663115  0.66042077  0.62393658    -0.20400
F1848       F  0.34079838  0.66721897  0.66922912    -0.21600
F1849       F  0.34385647  0.70413876  0.62548136    -0.18700
F1850       F  0.20832166  0.77049302  0.73194852    -0.18800
F1851       F  0.18018130  0.75769627  0.68376778    -0.22700
F1852       F  0.21376956  0.80438701  0.68594448    -0.24300
C1853       C  0.23626590  0.79587411  0.39348353    -0.11100
C1854       C  0.22619995  0.76252468  0.38456227     0.11500
C1855       C  0.20060481  0.74572696  0.40394866    -0.02900
C1856       C  0.18595368  0.76311470  0.43177316    -0.05600
C1857       C  0.19578980  0.79647809  0.44057362    -0.16400
C1858       C  0.22141755  0.81328865  0.42136327     0.02500
C1859       C  0.24431691  0.74555547  0.35594072     0.12500
C1860       C  0.18834558  0.70939674  0.39738465     0.63100
H1861       H  0.16687067  0.75025426  0.44726062     0.12500
C1862       C  0.23362377  0.84894208  0.43093025     0.55200
H1863       H  0.25617059  0.80799859  0.37853603     0.08300
C1864       C  0.23330016  0.74902184  0.32171311    -0.05500
C1865       C  0.25100273  0.73121995  0.29600006    -0.06200
C1866       C  0.27959485  0.71075556  0.30330245    -0.15800
C1867       C  0.29014522  0.70677089  0.33788378    -0.01400
C1868       C  0.27235639  0.72462760  0.36359909    -0.09000
C1869       C  0.20288671  0.77131106  0.31258586     0.65300
H1870       H  0.24257062  0.73314940  0.26967824     0.10800
C1871       C  0.31891943  0.68367012  0.34961369     0.63700
H1872       H  0.28009991  0.72181674  0.39013243     0.08100
F1873       F  0.20733649  0.87223752  0.42694823    -0.19400
F1874       F  0.26056877  0.85946955  0.41056287    -0.15600
F1875       F  0.24439137  0.84928047  0.46467734    -0.19100
F1876       F  0.20179770  0.69478576  0.36810769    -0.22400
F1877       F  0.15323312  0.70944257  0.39421755    -0.23900
F1878       F  0.19727506  0.68910683  0.42501574    -0.17900
F1879       F  0.34299090  0.70301940  0.36673742    -0.20400
F1880       F  0.33488700  0.66680005  0.32306370    -0.21600
F1881       F  0.30605267  0.65931521  0.37192460    -0.18700
F1882       F  0.19645935  0.77124496  0.27770280    -0.18800
F1883       F  0.20893561  0.80477901  0.32250166    -0.22700
F1884       F  0.17414262  0.75938947  0.32925562    -0.24300
loop_ 
_geom_bond_atom_site_label_1 
_geom_bond_atom_site_label_2 
_geom_bond_distance 
_geom_bond_site_symmetry_2 
_ccdc_geom_bond_type 
C1            C2   1.397       .  A
C1            C6   1.403       .  A
C1         C1857   1.477       .  S
C2            C3   1.397       .  A
C2            H7   1.085       .  S
C3            C4   1.400       .  A
C3         C1825   1.474       .  S
C4            C5   1.410       .  A
C4            H8   1.083       .  S
C5            C6   1.410       .  A
C5          C277   1.483       .  S
C6            H9   1.083       .  S
C10          C11   1.396       .  A
C10          C15   1.400       .  A
C10        C1802   1.472       .  S
C11          C12   1.397       .  A
C11          H16   1.085       .  S
C12          C13   1.405       .  A
C12        C1761   1.478       .  S
C13          C14   1.413   1_655  A
C13          H17   1.083       .  S
C14          C15   1.408   1_455  A
C14         C278   1.483   1_545  S
C15          H18   1.083   1_655  S
C19          C20   1.408       .  A
C19          C24   1.400       .  A
C19        C1697   1.482       .  S
C20          C21   1.415       .  A
C20          H25   1.083       .  S
C21          C22   1.410       .  A
C21         C275   1.490   1_655  S
C22          C23   1.403       .  A
C22          H26   1.083       .  S
C23          C24   1.396       .  A
C23        C1729   1.476       .  S
C24          H27   1.085       .  S
C28          C29   1.397       .  A
C28          C33   1.408       .  A
C28        C1665   1.482       .  S
C29          C30   1.398       .  A
C29          H34   1.085       .  S
C30          C31   1.403       .  A
C30        C1633   1.483       .  S
C31          C32   1.413       .  A
C31          H35   1.083       .  S
C32          C33   1.413       .  A
C32         C292   1.491       .  S
C33          H36   1.083       .  S
C37          C38   1.395       .  A
C37          C42   1.401       .  A
C37        C1610   1.472       .  S
C38          C39   1.395       .  A
C38          H43   1.085       .  S
C39          C40   1.402       .  A
C39        C1569   1.472       .  S
C40          C41   1.409       .  A
C40          H44   1.083       .  S
C41          C42   1.412       .  A
C41         C304   1.482   1_655  S
C42          H45   1.083       .  S
C46          C47   1.398       .  A
C46          C51   1.392       .  A
C46        C1514   1.469       .  S
C47          C48   1.409       .  A
C47          H52   1.083       .  S
C48          C49   1.416       .  A
C48         C306   1.487   1_655  S
C49          C50   1.410       .  A
C49          H53   1.083       .  S
C50          C51   1.395       .  A
C50        C1537   1.479       .  S
C51          H54   1.085       .  S
C55          C56   1.414       .  A
C55          C60   1.410       .  A
C55        C1482   1.511       .  S
C56          C57   1.410       .  A
C56          H61   1.078       .  S
C57          C58   1.410       .  A
C57         C291   1.488   1_545  S
C58          C59   1.401       .  A
C58          H62   1.083       .  S
C59          C60   1.394       .  A
C59        C1441   1.483       .  S
C60          H63   1.080       .  S
C64          C65   1.401       .  A
C64          C69   1.397       .  A
C64        C1377   1.471       .  S
C65          C66   1.407       .  A
C65          H70   1.083       .  S
C66          C67   1.409       .  A
C66         C303   1.477       .  S
C67          C68   1.398       .  A
C67          H71   1.084       .  S
C68          C69   1.395       .  A
C68        C1418   1.469       .  S
C69          H72   1.085       .  S
C73          C74   1.395       .  A
C73          C78   1.406       .  A
C73        C1313   1.476       .  S
C74          C75   1.395       .  A
C74          H79   1.085       .  S
C75          C76   1.401       .  A
C75        C1345   1.473       .  S
C76          C77   1.409       .  A
C76          H80   1.083       .  S
C77          C78   1.414       .  A
C77         C290   1.486       .  S
C78          H81   1.083       .  S
C82          C83   1.396       .  A
C82          C87   1.409       .  A
C82        C1258   1.483       .  S
C83          C84   1.395       .  A
C83          H88   1.085       .  S
C84          C85   1.404       .  A
C84        C1290   1.476       .  S
C85          C86   1.413       .  A
C85          H89   1.083       .  S
C86          C87   1.416       .  A
C86         C331   1.493       .  S
C87          H90   1.083       .  S
C91          C92   1.417       .  A
C91          C96   1.413       .  A
C91        C1153   1.488       .  S
C92          C93   1.420       .  A
C92        C1281   1.491       .  S
C93          C94   1.425       .  A
C93        C1098   1.505       .  S
C94          C95   1.428       .  A
C94        C1217   1.499       .  S
C95          C96   1.419       .  A
C95        C1121   1.491       .  S
C96        C1185   1.505       .  S
C97          C98   1.396       .  A
C97         C102   1.405       .  A
C97        C1057   1.478       .  S
C98          C99   1.394       .  A
C98         H103   1.085       .  S
C99         C100   1.402       .  A
C99        C1226   1.474       .  S
C100        C101   1.411       .  A
C100        H104   1.083       .  S
C101        C102   1.413       .  A
C101        C346   1.485       .  S
C102        H105   1.083       .  S
C106        C107   1.419       .  A
C106        C111   1.419       .  A
C106       C1066   1.492       .  S
C107        C108   1.418       .  A
C107       C1866   1.492       .  S
C108        C109   1.419       .  A
C108       C1034   1.499       .  S
C109        C110   1.419       .  A
C109        C961   1.489       .  S
C110        C111   1.418       .  A
C110       C1002   1.495       .  S
C111       C1674   1.498       .  S
C112        C113   1.415       .  A
C112        C117   1.415       .  A
C112       C1249   1.497       .  S
C113        C114   1.420       .  A
C113       C1793   1.488       .  S
C114        C115   1.417       .  A
C114        C938   1.491       .  S
C115        C116   1.414       .  A
C115        C874   1.497       .  S
C116        C117   1.416       .  A
C116        C906   1.490       .  S
C117       C1578   1.486       .  S
C118        C119   1.404       .  A
C118        C123   1.397       .  A
C118        C842   1.480       .  S
C119        C120   1.409       .  A
C119        H124   1.083       .  S
C120        C121   1.411       .  A
C120        C347   1.484       .  S
C121        C122   1.401       .  A
C121        H125   1.083       .  S
C122        C123   1.398       .  A
C122        C929   1.476       .  S
C123        H126   1.084       .  S
C127        C128   1.416       .  A
C127        C132   1.420       .  A
C127       C1642   1.497       .  S
C128        C129   1.416       .  A
C128        C833   1.492       .  S
C129        C130   1.416       .  A
C129       C1706   1.491       .  S
C130        C131   1.420       .  A
C130        C801   1.498       .  S
C131        C132   1.424       .  A
C131       C1601   1.494       .  S
C132        C778   1.496       .  S
C133        C134   1.396       .  A
C133        C138   1.405       .  A
C133        C810   1.478       .  S
C134        C135   1.396       .  A
C134        H139   1.085       .  S
C135        C136   1.402       .  A
C135       C1025   1.477       .  S
C136        C137   1.412       .  A
C136        H140   1.083       .  S
C137        C138   1.413       .  A
C137        C333   1.487       .  S
C138        H141   1.083       .  S
C142        C143   1.402       .  A
C142        C147   1.412       .  A
C142       C1194   1.486       .  S
C143        C144   1.398   1_554  A
C143        H148   1.085       .  S
C144        C145   1.399       .  A
C144        C737   1.480       .  S
C145        C146   1.409   1_556  A
C145        H149   1.083       .  S
C146        C147   1.416       .  A
C146        C320   1.491       .  S
C147        H150   1.083       .  S
C151        C152   1.425       .  A
C151        C156   1.420       .  A
C151        C746   1.497       .  S
C152        C153   1.426       .  A
C152       C1473   1.504       .  S
C153        C154   1.419       .  A
C153        C705   1.503       .  S
C154        C155   1.419       .  A
C154        C641   1.497       .  S
C155        C156   1.421       .  A
C155        C673   1.495       .  S
C156       C1386   1.501       .  S
C157        C158   1.398       .  A
C157        C162   1.404       .  A
C157        C618   1.475       .  S
C158        C159   1.397       .  A
C158        H163   1.085       .  S
C159        C160   1.405       .  A
C159        C714   1.481       .  S
C160        C161   1.413       .  A
C160        H164   1.083       .  S
C161        C162   1.410       .  A
C161        C348   1.488       .  S
C162        H165   1.083       .  S
C166        C167   1.419       .  A
C166        C171   1.421       .  A
C166        C609   1.490       .  S
C167        C168   1.413       .  A
C167       C1834   1.492       .  S
C168        C169   1.414       .  A
C168        C577   1.498       .  S
C169        C170   1.418       .  A
C169       C1409   1.482       .  S
C170        C171   1.420       .  A
C170        C545   1.500       .  S
C171       C1322   1.496       .  S
C172        C173   1.399       .  A
C172        C177   1.403       .  A
C172        C513   1.480       .  S
C173        C174   1.400       .  A
C173        H178   1.084       .  S
C174        C175   1.408       .  A
C174        C586   1.487       .  S
C175        C176   1.414       .  A
C175        H179   1.083       .  S
C176        C177   1.412       .  A
C176        C332   1.492       .  S
C177        H180   1.083       .  S
C181        C182   1.397       .  A
C181        C186   1.402       .  A
C181        C481   1.476       .  S
C182        C183   1.397       .  A
C182        H187   1.085       .  S
C183        C184   1.406       .  A
C183        C682   1.479       .  S
C184        C185   1.413       .  A
C184        H188   1.083       .  S
C185        C186   1.410       .  A
C185        C334   1.488       .  S
C186        H189   1.083       .  S
C190        C191   1.424       .  A
C190        C195   1.422       .  A
C190       C1770   1.498       .  S
C191        C192   1.419       .  A
C191        C449   1.499       .  S
C192        C193   1.417       .  A
C192       C1450   1.495       .  S
C193        C194   1.414       .  A
C193        C417   1.490       .  S
C194        C195   1.416       .  A
C194       C1546   1.497       .  S
C195        C490   1.492       .  S
C196        C197   1.404       .  A
C196        C201   1.399       .  A
C196        C394   1.480       .  S
C197        C198   1.413       .  A
C197        H202   1.083       .  S
C198        C199   1.411       .  A
C198        C345   1.487       .  S
C199        C200   1.403       .  A
C199        H203   1.083       .  S
C200        C201   1.398       .  A
C200        C458   1.479       .  S
C201        H204   1.085       .  S
C205        C206   1.420       .  A
C205        C210   1.427       .  A
C205       C1738   1.497       .  S
C206        C207   1.422       .  A
C206        C522   1.508       .  S
C207        C208   1.421       .  A
C207       C1505   1.487       .  S
C208        C209   1.423       .  A
C208        C353   1.512       .  S
C209        C210   1.428       .  A
C209       C1354   1.492       .  S
C210        C385   1.508       .  S
C211        C212   1.398       .  A
C211        C216   1.403       .  A
C211        C993   1.476       .  S
C212        C213   1.397   1_554  A
C212        H217   1.085       .  S
C213        C214   1.403       .  A
C213        C554   1.476       .  S
C214        C215   1.411   1_556  A
C214        H218   1.083       .  S
C215        C216   1.411       .  A
C215        C318   1.485       .  S
C216        H219   1.083       .  S
C220        C221   1.404       .  A
C220        C225   1.393       .  A
C220        C897   1.475       .  S
C221        C222   1.412       .  A
C221        H226   1.083       .  S
C222        C223   1.411   1_554  A
C222        C317   1.486       .  S
C223        C224   1.403       .  A
C223        H227   1.083       .  S
C224        C225   1.394   1_556  A
C224        C426   1.472       .  S
C225        H228   1.085       .  S
C229        C230   1.395   1_554  A
C229        C234   1.399       .  A
C229        C769   1.475       .  S
C230        C231   1.400       .  A
C230        H235   1.085       .  S
C231        C232   1.415       .  A
C231        C362   1.492       .  S
C232        C233   1.421       .  A
C232        H236   1.083       .  S
C233        C234   1.410   1_556  A
C233        C319   1.495       .  S
C234        H237   1.084       .  S
C238        C239   1.397       .  A
C238        C243   1.403       .  A
C238       C1130   1.478       .  S
C239        C240   1.398       .  A
C239        H244   1.085       .  S
C240        C241   1.404       .  A
C240        C865   1.477       .  S
C241        C242   1.411       .  A
C241        H245   1.083       .  S
C242        C243   1.411       .  A
C242        C289   1.487   1_545  S
C243        H246   1.083       .  S
C247        C248   1.396       .  A
C247        C252   1.400       .  A
C247        C970   1.471       .  S
C248        C249   1.397       .  A
C248        H253   1.085       .  S
C249        C250   1.406       .  A
C249       C1162   1.477       .  S
C250        C251   1.412       .  A
C250        H254   1.083       .  S
C251        C252   1.409       .  A
C251        C305   1.484       .  S
C252        H255   1.084       .  S
C256        C257   1.407       .  A
C256        C261   1.396       .  A
C256       C1089   1.484       .  S
C257        C258   1.414   1_545  A
C257        H262   1.083       .  S
C258        C259   1.412   1_565  A
C258        C276   1.491       .  S
C259        C260   1.404       .  A
C259        H263   1.083       .  S
C260        C261   1.397       .  A
C260        C650   1.478       .  S
C261        H264   1.085       .  S
O265       Cu273   2.020       .  S
O265        C275   1.279       .  A
O266       Cu273   2.019       .  S
O266        C276   1.279       .  A
O267       Cu273   2.016       .  S
O267        C277   1.279       .  A
O268       Cu273   2.015       .  S
O268        C278   1.280       .  A
O269       Cu274   2.008       .  S
O269        C278   1.277       .  A
O270       Cu274   2.005       .  S
O270        C277   1.278       .  A
O271       Cu274   2.025       .  S
O271        C276   1.280       .  A
O272       Cu274   2.024       .  S
O272        C275   1.281       .  A
Cu273      Cu274   2.368       .  S
O279       Cu287   2.020       .  S
O279        C289   1.280       .  A
O280       Cu287   2.017   1_556  S
O280        C290   1.280       .  A
O281       Cu287   2.007   1_556  S
O281        C291   1.277       .  A
O282       Cu287   2.010       .  S
O282        C292   1.278       .  A
O283       Cu288   2.035       .  S
O283        C292   1.281       .  A
O284       Cu288   2.030   1_556  S
O284        C291   1.281       .  A
O285       Cu288   2.013   1_556  S
O285        C290   1.278       .  A
O286       Cu288   2.013       .  S
O286        C289   1.279       .  A
Cu287      Cu288   2.368       .  S
O293       Cu301   1.992       .  S
O293        C303   1.276       .  A
O294       Cu301   1.998   1_554  S
O294        C304   1.276       .  A
O295       Cu301   2.008   1_554  S
O295        C305   1.279       .  A
O296       Cu301   2.010       .  S
O296        C306   1.280       .  A
O297       Cu302   2.024       .  S
O297        C306   1.279       .  A
O298       Cu302   2.019   1_554  S
O298        C305   1.279       .  A
O299       Cu302   2.020   1_554  S
O299        C304   1.280       .  A
O300       Cu302   2.013       .  S
O300        C303   1.279       .  A
Cu301      Cu302   2.370       .  S
O307       Cu315   2.020       .  S
O307        C317   1.280   1_556  A
O308       Cu315   2.018       .  S
O308        C318   1.280   1_556  A
O309       Cu315   2.029       .  S
O309        C319   1.279       .  A
O310       Cu315   2.015       .  S
O310        C320   1.280   1_556  A
O311       Cu316   2.029       .  S
O311        C320   1.279       .  A
O312       Cu316   2.027       .  S
O312        C319   1.282   1_554  A
O313       Cu316   2.010       .  S
O313        C318   1.278       .  A
O314       Cu316   2.011       .  S
O314        C317   1.278       .  A
Cu315      Cu316   2.367   1_556  S
O321       Cu329   2.025       .  S
O321        C331   1.279       .  A
O322       Cu329   2.021       .  S
O322        C332   1.280       .  A
O323       Cu329   2.018       .  S
O323        C333   1.279       .  A
O324       Cu329   2.019       .  S
O324        C334   1.280       .  A
O325       Cu330   2.019       .  S
O325        C334   1.279       .  A
O326       Cu330   2.015       .  S
O326        C333   1.279       .  A
O327       Cu330   2.027       .  S
O327        C332   1.280       .  A
O328       Cu330   2.026       .  S
O328        C331   1.281       .  A
Cu329      Cu330   2.367       .  S
O335       Cu343   2.010       .  S
O335        C345   1.278       .  A
O336       Cu343   2.010       .  S
O336        C346   1.278       .  A
O337       Cu343   2.023       .  S
O337        C347   1.280       .  A
O338       Cu343   2.029       .  S
O338        C348   1.281       .  A
O339       Cu344   2.008       .  S
O339        C348   1.278       .  A
O340       Cu344   2.002       .  S
O340        C347   1.277       .  A
O341       Cu344   2.019       .  S
O341        C346   1.280       .  A
O342       Cu344   2.022       .  S
O342        C345   1.280       .  A
Cu343      Cu344   2.368       .  S
C349        C350   1.401       .  A
C349        C354   1.410       .  A
C349        H359   1.085       .  S
C350        C351   1.413       .  A
C350        C355   1.496       .  S
C351        C352   1.411       .  A
C351        C356   1.518       .  S
C352        C353   1.409       .  A
C352        H357   1.082       .  S
C353        C354   1.426       .  A
C354        C358   1.512       .  S
C355        C360   1.417       .  A
C355        C364   1.406       .  A
C356        F372   1.383       .  S
C356        F373   1.382       .  S
C356        F374   1.384       .  S
C358        F369   1.383       .  S
C358        F370   1.383       .  S
C358        F371   1.373       .  S
C360        C361   1.409       .  A
C360        C365   1.519       .  S
C361        C362   1.404       .  A
C361        H366   1.083       .  S
C362        C363   1.418       .  A
C363        C364   1.415       .  A
C363        C367   1.517       .  S
C364        H368   1.083       .  S
C365        F378   1.384       .  S
C365        F379   1.382       .  S
C365        F380   1.380       .  S
C367        F375   1.385       .  S
C367        F376   1.383       .  S
C367        F377   1.382       .  S
C381        C382   1.401       .  A
C381        C386   1.407       .  A
C381        H391   1.085       .  S
C382        C383   1.413       .  A
C382        C387   1.494       .  S
C383        C384   1.410       .  A
C383        C388   1.518       .  S
C384        C385   1.410       .  A
C384        H389   1.082       .  S
C385        C386   1.424       .  A
C386        C390   1.512       .  S
C387        C392   1.418       .  A
C387        C396   1.405       .  A
C388        F404   1.382       .  S
C388        F405   1.382       .  S
C388        F406   1.385       .  S
C390        F401   1.382       .  S
C390        F402   1.383       .  S
C390        F403   1.372       .  S
C392        C393   1.405       .  A
C392        C397   1.511       .  S
C393        C394   1.398       .  A
C393        H398   1.084       .  S
C394        C395   1.414       .  A
C395        C396   1.410       .  A
C395        C399   1.516       .  S
C396        H400   1.079       .  S
C397        F410   1.385       .  S
C397        F411   1.377       .  S
C397        F412   1.382       .  S
C399        F407   1.382       .  S
C399        F408   1.383       .  S
C399        F409   1.385       .  S
C413        C414   1.395       .  A
C413        C418   1.399       .  A
C413        H423   1.085       .  S
C414        C415   1.415       .  A
C414        C419   1.479       .  S
C415        C416   1.408       .  A
C415        C420   1.518       .  S
C416        C417   1.405       .  A
C416        H421   1.081       .  S
C417        C418   1.423       .  A
C418        C422   1.516       .  S
C419        C424   1.415       .  A
C419        C428   1.404       .  A
C420        F436   1.381       .  S
C420        F437   1.381       .  S
C420        F438   1.385       .  S
C422        F433   1.384       .  S
C422        F434   1.384       .  S
C422        F435   1.373       .  S
C424        C425   1.401       .  A
C424        C429   1.516       .  S
C425        C426   1.399       .  A
C425        H430   1.084       .  S
C426        C427   1.413       .  A
C427        C428   1.408       .  A
C427        C431   1.516       .  S
C428        H432   1.082       .  S
C429        F442   1.384       .  S
C429        F443   1.382       .  S
C429        F444   1.380       .  S
C431        F439   1.385       .  S
C431        F440   1.383       .  S
C431        F441   1.383       .  S
C445        C446   1.397       .  A
C445        C450   1.404       .  A
C445        H455   1.085       .  S
C446        C447   1.415       .  A
C446        C451   1.485       .  S
C447        C448   1.408       .  A
C447        C452   1.519       .  S
C448        C449   1.406       .  A
C448        H453   1.081       .  S
C449        C450   1.427       .  A
C450        C454   1.520       .  S
C451        C456   1.417       .  A
C451        C460   1.404       .  A
C452        F468   1.381       .  S
C452        F469   1.382       .  S
C452        F470   1.385       .  S
C454        F465   1.383       .  S
C454        F466   1.384       .  S
C454        F467   1.378       .  S
C456        C457   1.408   1_545  A
C456        C461   1.519       .  S
C457        C458   1.403       .  A
C457        H462   1.083       .  S
C458        C459   1.413   1_565  A
C459        C460   1.406       .  A
C459        C463   1.516       .  S
C460        H464   1.084       .  S
C461        F474   1.385       .  S
C461        F475   1.382       .  S
C461        F476   1.382       .  S
C463        F471   1.385       .  S
C463        F472   1.383       .  S
C463        F473   1.383   1_545  S
C477        C478   1.402       .  A
C477        C482   1.406       .  A
C477        H487   1.083       .  S
C478        C479   1.416       .  A
C478        C483   1.481       .  S
C479        C480   1.406       .  A
C479        C484   1.519       .  S
C480        C481   1.402   1_655  A
C480        H485   1.083   1_655  S
C481        C482   1.414   1_455  A
C482        C486   1.517   1_655  S
C483        C488   1.415       .  A
C483        C492   1.396       .  A
C484        F500   1.382       .  S
C484        F501   1.380       .  S
C484        F502   1.384       .  S
C486        F497   1.383       .  S
C486        F498   1.384   1_455  S
C486        F499   1.383       .  S
C488        C489   1.409       .  A
C488        C493   1.519       .  S
C489        C490   1.406       .  A
C489        H494   1.082       .  S
C490        C491   1.422       .  A
C491        C492   1.400       .  A
C491        C495   1.516       .  S
C492        H496   1.085       .  S
C493        F506   1.384       .  S
C493        F507   1.383       .  S
C493        F508   1.382       .  S
C495        F503   1.384       .  S
C495        F504   1.374       .  S
C495        F505   1.382       .  S
C509        C510   1.401       .  A
C509        C514   1.405       .  A
C509        H519   1.083       .  S
C510        C511   1.417       .  A
C510        C515   1.486       .  S
C511        C512   1.409       .  A
C511        C516   1.519       .  S
C512        C513   1.404   1_655  A
C512        H517   1.083   1_655  S
C513        C514   1.419   1_455  A
C514        C518   1.518       .  S
C515        C520   1.413       .  A
C515        C524   1.396       .  A
C516        F532   1.382       .  S
C516        F533   1.380       .  S
C516        F534   1.385       .  S
C518        F529   1.384       .  S
C518        F530   1.383   1_655  S
C518        F531   1.381   1_655  S
C520        C521   1.412       .  A
C520        C525   1.517       .  S
C521        C522   1.410       .  A
C521        H526   1.083       .  S
C522        C523   1.424       .  A
C523        C524   1.402       .  A
C523        C527   1.507       .  S
C524        H528   1.086       .  S
C525        F538   1.384       .  S
C525        F539   1.382       .  S
C525        F540   1.381       .  S
C527        F535   1.366       .  S
C527        F536   1.384       .  S
C527        F537   1.383       .  S
C541        C542   1.403       .  A
C541        C546   1.408       .  A
C541        H551   1.085       .  S
C542        C543   1.413       .  A
C542        C547   1.490       .  S
C543        C544   1.406       .  A
C543        C548   1.519       .  S
C544        C545   1.407       .  A
C544        H549   1.082       .  S
C545        C546   1.421       .  A
C546        C550   1.514       .  S
C547        C552   1.416       .  A
C547        C556   1.402       .  A
C548        F564   1.382       .  S
C548        F565   1.382       .  S
C548        F566   1.385       .  S
C550        F561   1.383       .  S
C550        F562   1.376       .  S
C550        F563   1.383       .  S
C552        C553   1.404       .  A
C552        C557   1.511       .  S
C553        C554   1.399       .  A
C553        H558   1.084       .  S
C554        C555   1.419       .  A
C555        C556   1.408       .  A
C555        C559   1.518       .  S
C556        H560   1.084       .  S
C557        F570   1.385       .  S
C557        F571   1.378       .  S
C557        F572   1.382       .  S
C559        F567   1.383       .  S
C559        F568   1.382       .  S
C559        F569   1.384       .  S
C573        C574   1.400       .  A
C573        C578   1.407       .  A
C573        H583   1.085       .  S
C574        C575   1.416       .  A
C574        C579   1.489       .  S
C575        C576   1.408       .  A
C575        C580   1.518       .  S
C576        C577   1.404       .  A
C576        H581   1.080       .  S
C577        C578   1.424       .  A
C578        C582   1.520       .  S
C579        C584   1.418       .  A
C579        C588   1.402       .  A
C580        F596   1.382       .  S
C580        F597   1.382       .  S
C580        F598   1.385       .  S
C582        F593   1.383       .  S
C582        F594   1.383       .  S
C582        F595   1.380       .  S
C584        C585   1.411       .  A
C584        C589   1.519       .  S
C585        C586   1.404       .  A
C585        H590   1.083       .  S
C586        C587   1.417       .  A
C587        C588   1.408       .  A
C587        C591   1.518       .  S
C588        H592   1.083       .  S
C589        F602   1.385       .  S
C589        F603   1.382       .  S
C589        F604   1.382       .  S
C591        F599   1.384       .  S
C591        F600   1.383       .  S
C591        F601   1.381       .  S
C605        C606   1.402       .  A
C605        C610   1.406       .  A
C605        H615   1.084       .  S
C606        C607   1.412       .  A
C606        C611   1.484       .  S
C607        C608   1.404       .  A
C607        C612   1.519       .  S
C608        C609   1.404       .  A
C608        H613   1.080       .  S
C609        C610   1.420       .  A
C610        C614   1.517       .  S
C611        C616   1.414       .  A
C611        C620   1.401       .  A
C612        F628   1.382       .  S
C612        F629   1.382       .  S
C612        F630   1.385       .  S
C614        F625   1.383       .  S
C614        F626   1.383       .  S
C614        F627   1.379       .  S
C616        C617   1.403       .  A
C616        C621   1.510       .  S
C617        C618   1.400       .  A
C617        H622   1.084       .  S
C618        C619   1.419       .  A
C619        C620   1.406       .  A
C619        C623   1.517       .  S
C620        H624   1.085       .  S
C621        F634   1.385       .  S
C621        F635   1.381       .  S
C621        F636   1.382       .  S
C623        F631   1.383       .  S
C623        F632   1.382       .  S
C623        F633   1.384       .  S
C637        C638   1.399       .  A
C637        C642   1.404       .  A
C637        H647   1.085       .  S
C638        C639   1.411       .  A
C638        C643   1.482       .  S
C639        C640   1.407       .  A
C639        C644   1.516       .  S
C640        C641   1.408       .  A
C640        H645   1.082       .  S
C641        C642   1.422       .  A
C642        C646   1.511       .  S
C643        C648   1.419       .  A
C643        C652   1.405       .  A
C644        F660   1.382       .  S
C644        F661   1.383       .  S
C644        F662   1.384       .  S
C646        F657   1.383       .  S
C646        F658   1.383       .  S
C646        F659   1.372       .  S
C648        C649   1.404       .  A
C648        C653   1.520       .  S
C649        C650   1.401       .  A
C649        H654   1.085       .  S
C650        C651   1.414       .  A
C651        C652   1.408       .  A
C651        C655   1.517   1_545  S
C652        H656   1.083       .  S
C653        F666   1.383       .  S
C653        F667   1.383       .  S
C653        F668   1.381       .  S
C655        F663   1.384       .  S
C655        F664   1.383       .  S
C655        F665   1.383       .  S
C669        C670   1.397       .  A
C669        C674   1.403       .  A
C669        H679   1.085       .  S
C670        C671   1.416       .  A
C670        C675   1.484       .  S
C671        C672   1.408       .  A
C671        C676   1.519       .  S
C672        C673   1.405       .  A
C672        H677   1.082       .  S
C673        C674   1.424       .  A
C674        C678   1.518       .  S
C675        C680   1.417       .  A
C675        C684   1.402       .  A
C676        F692   1.381       .  S
C676        F693   1.382       .  S
C676        F694   1.384       .  S
C678        F689   1.382       .  S
C678        F690   1.383       .  S
C678        F691   1.378       .  S
C680        C681   1.408       .  A
C680        C685   1.519       .  S
C681        C682   1.403       .  A
C681        H686   1.083       .  S
C682        C683   1.415       .  A
C683        C684   1.406       .  A
C683        C687   1.517       .  S
C684        H688   1.084       .  S
C685        F698   1.384       .  S
C685        F699   1.382       .  S
C685        F700   1.381       .  S
C687        F695   1.384       .  S
C687        F696   1.383       .  S
C687        F697   1.383       .  S
C701        C702   1.405       .  A
C701        C706   1.411       .  A
C701        H711   1.085       .  S
C702        C703   1.412       .  A
C702        C707   1.491       .  S
C703        C704   1.407       .  A
C703        C708   1.520       .  S
C704        C705   1.408       .  A
C704        H709   1.079       .  S
C705        C706   1.421       .  A
C706        C710   1.515       .  S
C707        C712   1.424       .  A
C707        C716   1.405       .  A
C708        F724   1.383       .  S
C708        F725   1.381       .  S
C708        F726   1.384       .  S
C710        F721   1.383       .  S
C710        F722   1.383       .  S
C710        F723   1.377       .  S
C712        C713   1.405       .  A
C712        C717   1.515       .  S
C713        C714   1.398   1_545  A
C713        H718   1.085       .  S
C714        C715   1.416       .  A
C715        C716   1.409   1_565  A
C715        C719   1.518       .  S
C716        H720   1.083       .  S
C717        F730   1.384       .  S
C717        F731   1.383       .  S
C717        F732   1.377       .  S
C719        F727   1.382       .  S
C719        F728   1.383       .  S
C719        F729   1.385       .  S
C733        C734   1.403       .  A
C733        C738   1.407       .  A
C733        H743   1.083       .  S
C734        C735   1.415       .  A
C734        C739   1.484       .  S
C735        C736   1.407       .  A
C735        C740   1.518       .  S
C736        C737   1.403       .  A
C736        H741   1.083       .  S
C737        C738   1.416       .  A
C738        C742   1.519       .  S
C739        C744   1.413       .  A
C739        C748   1.401       .  A
C740        F756   1.380       .  S
C740        F757   1.382       .  S
C740        F758   1.384       .  S
C742        F753   1.384       .  S
C742        F754   1.382       .  S
C742        F755   1.383       .  S
C744        C745   1.405       .  A
C744        C749   1.521       .  S
C745        C746   1.405       .  A
C745        H750   1.080       .  S
C746        C747   1.424       .  A
C747        C748   1.407       .  A
C747        C751   1.522       .  S
C748        H752   1.084       .  S
C749        F762   1.383       .  S
C749        F763   1.381       .  S
C749        F764   1.381       .  S
C751        F759   1.384       .  S
C751        F760   1.381       .  S
C751        F761   1.381       .  S
C765        C766   1.401       .  A
C765        C770   1.403       .  A
C765        H775   1.085       .  S
C766        C767   1.416       .  A
C766        C771   1.483       .  S
C767        C768   1.408       .  A
C767        C772   1.518       .  S
C768        C769   1.403       .  A
C768        H773   1.083       .  S
C769        C770   1.418       .  A
C770        C774   1.519       .  S
C771        C776   1.415       .  A
C771        C780   1.398       .  A
C772        F788   1.382       .  S
C772        F789   1.381       .  S
C772        F790   1.384       .  S
C774        F785   1.383       .  S
C774        F786   1.384       .  S
C774        F787   1.381       .  S
C776        C777   1.407       .  A
C776        C781   1.519       .  S
C777        C778   1.406       .  A
C777        H782   1.082       .  S
C778        C779   1.423       .  A
C779        C780   1.404       .  A
C779        C783   1.516       .  S
C780        H784   1.085       .  S
C781        F794   1.384       .  S
C781        F795   1.382       .  S
C781        F796   1.382       .  S
C783        F791   1.383       .  S
C783        F792   1.376       .  S
C783        F793   1.382       .  S
C797        C798   1.404       .  A
C797        C802   1.409       .  A
C797        H807   1.084       .  S
C798        C799   1.414       .  A
C798        C803   1.492       .  S
C799        C800   1.406       .  A
C799        C804   1.518       .  S
C800        C801   1.406       .  A
C800        H805   1.082       .  S
C801        C802   1.420       .  A
C802        C806   1.514       .  S
C803        C808   1.418       .  A
C803        C812   1.404       .  A
C804        F820   1.382       .  S
C804        F821   1.383       .  S
C804        F822   1.385       .  S
C806        F817   1.383       .  S
C806        F818   1.383       .  S
C806        F819   1.376       .  S
C808        C809   1.404       .  A
C808        C813   1.512       .  S
C809        C810   1.398   1_655  A
C809        H814   1.084   1_655  S
C810        C811   1.414   1_455  A
C811        C812   1.410       .  A
C811        C815   1.515   1_655  S
C812        H816   1.083       .  S
C813        F826   1.385       .  S
C813        F827   1.380       .  S
C813        F828   1.380       .  S
C815        F823   1.382       .  S
C815        F824   1.383   1_455  S
C815        F825   1.384   1_455  S
C829        C830   1.399       .  A
C829        C834   1.404       .  A
C829        H839   1.085       .  S
C830        C831   1.415       .  A
C830        C835   1.483       .  S
C831        C832   1.406       .  A
C831        C836   1.519       .  S
C832        C833   1.404       .  A
C832        H837   1.081       .  S
C833        C834   1.424       .  A
C834        C838   1.521       .  S
C835        C840   1.416       .  A
C835        C844   1.401       .  A
C836        F852   1.383       .  S
C836        F853   1.382       .  S
C836        F854   1.384       .  S
C838        F849   1.384       .  S
C838        F850   1.383       .  S
C838        F851   1.381       .  S
C840        C841   1.407       .  A
C840        C845   1.518       .  S
C841        C842   1.402       .  A
C841        H846   1.083       .  S
C842        C843   1.419       .  A
C843        C844   1.406       .  A
C843        C847   1.521       .  S
C844        H848   1.083       .  S
C845        F858   1.385       .  S
C845        F859   1.382       .  S
C845        F860   1.382       .  S
C847        F855   1.385       .  S
C847        F856   1.383       .  S
C847        F857   1.381       .  S
C861        C862   1.404       .  A
C861        C866   1.409       .  A
C861        H871   1.082       .  S
C862        C863   1.417       .  A
C862        C867   1.487       .  S
C863        C864   1.404       .  A
C863        C868   1.516       .  S
C864        C865   1.399       .  A
C864        H869   1.084       .  S
C865        C866   1.415       .  A
C866        C870   1.517       .  S
C867        C872   1.413       .  A
C867        C876   1.402       .  A
C868        F884   1.382       .  S
C868        F885   1.381       .  S
C868        F886   1.385       .  S
C870        F881   1.383       .  S
C870        F882   1.385       .  S
C870        F883   1.381       .  S
C872        C873   1.408       .  A
C872        C877   1.518       .  S
C873        C874   1.407       .  A
C873        H878   1.083       .  S
C874        C875   1.419       .  A
C875        C876   1.406       .  A
C875        C879   1.512       .  S
C876        H880   1.085       .  S
C877        F890   1.384       .  S
C877        F891   1.382       .  S
C877        F892   1.382       .  S
C879        F887   1.383       .  S
C879        F888   1.375       .  S
C879        F889   1.383       .  S
C893        C894   1.400       .  A
C893        C898   1.404       .  A
C893        H903   1.083       .  S
C894        C895   1.416       .  A
C894        C899   1.478       .  S
C895        C896   1.408       .  A
C895        C900   1.520       .  S
C896        C897   1.402       .  A
C896        H901   1.083       .  S
C897        C898   1.416       .  A
C898        C902   1.519       .  S
C899        C904   1.414       .  A
C899        C908   1.397       .  A
C900        F916   1.382       .  S
C900        F917   1.381       .  S
C900        F918   1.384       .  S
C902        F913   1.382       .  S
C902        F914   1.385       .  S
C902        F915   1.383       .  S
C904        C905   1.405       .  A
C904        C909   1.521       .  S
C905        C906   1.404       .  A
C905        H910   1.080       .  S
C906        C907   1.423       .  A
C907        C908   1.402       .  A
C907        C911   1.520       .  S
C908        H912   1.085       .  S
C909        F922   1.385       .  S
C909        F923   1.383       .  S
C909        F924   1.381       .  S
C911        F919   1.384       .  S
C911        F920   1.379       .  S
C911        F921   1.383       .  S
C925        C926   1.404       .  A
C925        C930   1.408       .  A
C925        H935   1.083       .  S
C926        C927   1.414       .  A
C926        C931   1.484       .  S
C927        C928   1.403       .  A
C927        C932   1.513       .  S
C928        C929   1.400   1_545  A
C928        H933   1.084   1_545  S
C929        C930   1.414   1_565  A
C930        C934   1.515       .  S
C931        C936   1.416       .  A
C931        C940   1.398       .  A
C932        F948   1.382       .  S
C932        F949   1.380       .  S
C932        F950   1.385       .  S
C934        F945   1.385       .  S
C934        F946   1.383       .  S
C934        F947   1.383   1_545  S
C936        C937   1.407       .  A
C936        C941   1.520       .  S
C937        C938   1.404       .  A
C937        H942   1.082       .  S
C938        C939   1.425       .  A
C939        C940   1.405       .  A
C939        C943   1.521       .  S
C940        H944   1.085       .  S
C941        F954   1.384       .  S
C941        F955   1.380       .  S
C941        F956   1.381       .  S
C943        F951   1.379       .  S
C943        F952   1.383       .  S
C943        F953   1.384       .  S
C957        C958   1.397       .  A
C957        C962   1.403       .  A
C957        H967   1.085       .  S
C958        C959   1.416       .  A
C958        C963   1.484       .  S
C959        C960   1.407       .  A
C959        C964   1.519       .  S
C960        C961   1.404       .  A
C960        H965   1.081       .  S
C961        C962   1.425       .  A
C962        C966   1.522       .  S
C963        C968   1.414       .  A
C963        C972   1.401       .  A
C964        F980   1.381       .  S
C964        F981   1.382       .  S
C964        F982   1.384       .  S
C966        F977   1.383       .  S
C966        F978   1.384       .  S
C966        F979   1.380       .  S
C968        C969   1.402       .  A
C968        C973   1.512       .  S
C969        C970   1.400       .  A
C969        H974   1.084       .  S
C970        C971   1.418       .  A
C971        C972   1.406       .  A
C971        C975   1.518       .  S
C972        H976   1.085       .  S
C973        F986   1.385       .  S
C973        F987   1.383       .  S
C973        F988   1.379       .  S
C975        F983   1.383       .  S
C975        F984   1.381       .  S
C975        F985   1.383       .  S
C989        C990   1.402       .  A
C989        C994   1.406       .  A
C989        H999   1.083       .  S
C990        C991   1.416       .  A
C990        C995   1.483       .  S
C991        C992   1.404       .  A
C991        C996   1.519       .  S
C992        C993   1.402       .  A
C992        H997   1.084       .  S
C993        C994   1.419       .  A
C994        C998   1.518       .  S
C995       C1000   1.412       .  A
C995       C1004   1.399       .  A
C996       F1012   1.382       .  S
C996       F1013   1.382       .  S
C996       F1014   1.384       .  S
C998       F1009   1.384       .  S
C998       F1010   1.383       .  S
C998       F1011   1.381       .  S
C1000      C1001   1.406       .  A
C1000      C1005   1.517       .  S
C1001      C1002   1.408       .  A
C1001      H1006   1.083       .  S
C1002      C1003   1.420       .  A
C1003      C1004   1.402       .  A
C1003      C1007   1.510       .  S
C1004      H1008   1.085       .  S
C1005      F1018   1.385       .  S
C1005      F1019   1.382       .  S
C1005      F1020   1.382       .  S
C1007      F1015   1.384       .  S
C1007      F1016   1.370       .  S
C1007      F1017   1.383       .  S
C1021      C1022   1.405       .  A
C1021      C1026   1.411       .  A
C1021      H1031   1.083       .  S
C1022      C1023   1.416       .  A
C1022      C1027   1.490       .  S
C1023      C1024   1.404       .  A
C1023      C1028   1.510       .  S
C1024      C1025   1.398       .  A
C1024      H1029   1.083       .  S
C1025      C1026   1.414       .  A
C1026      C1030   1.516       .  S
C1027      C1032   1.420       .  A
C1027      C1036   1.401       .  A
C1028      F1044   1.383       .  S
C1028      F1045   1.382       .  S
C1028      F1046   1.385       .  S
C1030      F1041   1.382       .  S
C1030      F1042   1.383       .  S
C1030      F1043   1.383       .  S
C1032      C1033   1.406       .  A
C1032      C1037   1.519       .  S
C1033      C1034   1.403       .  A
C1033      H1038   1.082       .  S
C1034      C1035   1.424       .  A
C1035      C1036   1.408       .  A
C1035      C1039   1.520       .  S
C1036      H1040   1.085       .  S
C1037      F1050   1.383       .  S
C1037      F1051   1.381       .  S
C1037      F1052   1.383       .  S
C1039      F1047   1.383       .  S
C1039      F1048   1.379       .  S
C1039      F1049   1.383       .  S
C1053      C1054   1.402       .  A
C1053      C1058   1.406       .  A
C1053      H1063   1.085       .  S
C1054      C1055   1.413       .  A
C1054      C1059   1.478       .  S
C1055      C1056   1.403       .  A
C1055      C1060   1.521       .  S
C1056      C1057   1.405       .  A
C1056      H1061   1.083       .  S
C1057      C1058   1.420       .  A
C1058      C1062   1.519       .  S
C1059      C1064   1.410       .  A
C1059      C1068   1.399       .  A
C1060      F1076   1.382       .  S
C1060      F1077   1.381       .  S
C1060      F1078   1.384       .  S
C1062      F1073   1.383       .  S
C1062      F1074   1.384       .  S
C1062      F1075   1.380       .  S
C1064      C1065   1.404       .  A
C1064      C1069   1.519       .  S
C1065      C1066   1.407       .  A
C1065      H1070   1.082       .  S
C1066      C1067   1.421       .  A
C1067      C1068   1.402       .  A
C1067      C1071   1.514       .  S
C1068      H1072   1.085       .  S
C1069      F1082   1.385       .  S
C1069      F1083   1.382       .  S
C1069      F1084   1.382       .  S
C1071      F1079   1.383       .  S
C1071      F1080   1.374       .  S
C1071      F1081   1.383       .  S
C1085      C1086   1.406       .  A
C1085      C1090   1.410       .  A
C1085      H1095   1.083       .  S
C1086      C1087   1.418       .  A
C1086      C1091   1.487       .  S
C1087      C1088   1.404       .  A
C1087      C1092   1.515       .  S
C1088      C1089   1.402       .  A
C1088      H1093   1.085       .  S
C1089      C1090   1.415       .  A
C1090      C1094   1.517       .  S
C1091      C1096   1.414       .  A
C1091      C1100   1.395       .  A
C1092      F1108   1.383       .  S
C1092      F1109   1.378       .  S
C1092      F1110   1.384       .  S
C1094      F1105   1.383   1_545  S
C1094      F1106   1.385   1_545  S
C1094      F1107   1.382   1_545  S
C1096      C1097   1.412       .  A
C1096      C1101   1.516       .  S
C1097      C1098   1.410       .  A
C1097      H1102   1.082       .  S
C1098      C1099   1.428       .  A
C1099      C1100   1.403       .  A
C1099      C1103   1.516       .  S
C1100      H1104   1.085       .  S
C1101      F1114   1.384       .  S
C1101      F1115   1.381       .  S
C1101      F1116   1.381       .  S
C1103      F1111   1.384       .  S
C1103      F1112   1.371       .  S
C1103      F1113   1.383       .  S
C1117      C1118   1.397       .  A
C1117      C1122   1.401       .  A
C1117      H1127   1.085       .  S
C1118      C1119   1.415       .  A
C1118      C1123   1.481       .  S
C1119      C1120   1.407       .  A
C1119      C1124   1.519       .  S
C1120      C1121   1.405       .  A
C1120      H1125   1.082       .  S
C1121      C1122   1.422       .  A
C1122      C1126   1.516       .  S
C1123      C1128   1.416       .  A
C1123      C1132   1.401       .  A
C1124      F1140   1.381       .  S
C1124      F1141   1.382       .  S
C1124      F1142   1.385       .  S
C1126      F1137   1.382       .  S
C1126      F1138   1.383       .  S
C1126      F1139   1.377       .  S
C1128      C1129   1.408       .  A
C1128      C1133   1.519       .  S
C1129      C1130   1.403       .  A
C1129      H1134   1.083       .  S
C1130      C1131   1.415       .  A
C1131      C1132   1.404       .  A
C1131      C1135   1.516       .  S
C1132      H1136   1.083       .  S
C1133      F1146   1.384       .  S
C1133      F1147   1.382       .  S
C1133      F1148   1.381       .  S
C1135      F1143   1.385       .  S
C1135      F1144   1.383       .  S
C1135      F1145   1.381       .  S
C1149      C1150   1.395       .  A
C1149      C1154   1.399       .  A
C1149      H1159   1.085       .  S
C1150      C1151   1.415       .  A
C1150      C1155   1.480       .  S
C1151      C1152   1.407       .  A
C1151      C1156   1.517       .  S
C1152      C1153   1.404       .  A
C1152      H1157   1.082       .  S
C1153      C1154   1.424       .  A
C1154      C1158   1.518       .  S
C1155      C1160   1.417       .  A
C1155      C1164   1.401       .  A
C1156      F1172   1.383       .  S
C1156      F1173   1.382       .  S
C1156      F1174   1.385       .  S
C1158      F1169   1.383       .  S
C1158      F1170   1.383       .  S
C1158      F1171   1.375       .  S
C1160      C1161   1.407       .  A
C1160      C1165   1.521       .  S
C1161      C1162   1.402       .  A
C1161      H1166   1.083       .  S
C1162      C1163   1.416       .  A
C1163      C1164   1.406       .  A
C1163      C1167   1.518       .  S
C1164      H1168   1.083       .  S
C1165      F1178   1.384       .  S
C1165      F1179   1.382       .  S
C1165      F1180   1.383       .  S
C1167      F1175   1.383       .  S
C1167      F1176   1.382       .  S
C1167      F1177   1.384       .  S
C1181      C1182   1.399       .  A
C1181      C1186   1.406       .  A
C1181      H1191   1.085       .  S
C1182      C1183   1.413       .  A
C1182      C1187   1.490       .  S
C1183      C1184   1.411       .  A
C1183      C1188   1.517       .  S
C1184      C1185   1.409       .  A
C1184      H1189   1.083       .  S
C1185      C1186   1.423       .  A
C1186      C1190   1.509       .  S
C1187      C1192   1.417       .  A
C1187      C1196   1.402       .  A
C1188      F1204   1.382       .  S
C1188      F1205   1.382       .  S
C1188      F1206   1.384       .  S
C1190      F1201   1.383       .  S
C1190      F1202   1.383       .  S
C1190      F1203   1.369       .  S
C1192      C1193   1.410       .  A
C1192      C1197   1.519       .  S
C1193      C1194   1.405       .  A
C1193      H1198   1.083       .  S
C1194      C1195   1.421       .  A
C1195      C1196   1.409       .  A
C1195      C1199   1.518       .  S
C1196      H1200   1.085       .  S
C1197      F1210   1.384       .  S
C1197      F1211   1.382       .  S
C1197      F1212   1.381       .  S
C1199      F1207   1.383       .  S
C1199      F1208   1.381       .  S
C1199      F1209   1.384       .  S
C1213      C1214   1.401       .  A
C1213      C1218   1.405       .  A
C1213      H1223   1.085       .  S
C1214      C1215   1.412       .  A
C1214      C1219   1.485       .  S
C1215      C1216   1.406       .  A
C1215      C1220   1.519       .  S
C1216      C1217   1.408       .  A
C1216      H1221   1.082       .  S
C1217      C1218   1.422       .  A
C1218      C1222   1.513       .  S
C1219      C1224   1.417       .  A
C1219      C1228   1.402       .  A
C1220      F1236   1.382       .  S
C1220      F1237   1.382       .  S
C1220      F1238   1.384       .  S
C1222      F1233   1.383       .  S
C1222      F1234   1.383       .  S
C1222      F1235   1.373       .  S
C1224      C1225   1.405       .  A
C1224      C1229   1.514       .  S
C1225      C1226   1.399   1_545  A
C1225      H1230   1.083   1_545  S
C1226      C1227   1.415       .  A
C1227      C1228   1.406   1_565  A
C1227      C1231   1.518       .  S
C1228      H1232   1.081       .  S
C1229      F1242   1.385       .  S
C1229      F1243   1.382       .  S
C1229      F1244   1.380       .  S
C1231      F1239   1.382       .  S
C1231      F1240   1.383       .  S
C1231      F1241   1.384       .  S
C1245      C1246   1.402       .  A
C1245      C1250   1.407       .  A
C1245      H1255   1.085       .  S
C1246      C1247   1.414       .  A
C1246      C1251   1.489       .  S
C1247      C1248   1.406       .  A
C1247      C1252   1.518       .  S
C1248      C1249   1.406       .  A
C1248      H1253   1.083       .  S
C1249      C1250   1.420       .  A
C1250      C1254   1.512       .  S
C1251      C1256   1.417       .  A
C1251      C1260   1.404       .  A
C1252      F1268   1.382       .  S
C1252      F1269   1.382       .  S
C1252      F1270   1.385       .  S
C1254      F1265   1.383       .  S
C1254      F1266   1.383       .  S
C1254      F1267   1.375       .  S
C1256      C1257   1.407   1_655  A
C1256      C1261   1.517       .  S
C1257      C1258   1.403       .  A
C1257      H1262   1.083       .  S
C1258      C1259   1.415   1_455  A
C1259      C1260   1.410       .  A
C1259      C1263   1.516   1_655  S
C1260      H1264   1.083       .  S
C1261      F1274   1.384       .  S
C1261      F1275   1.383       .  S
C1261      F1276   1.380       .  S
C1263      F1271   1.383       .  S
C1263      F1272   1.383   1_455  S
C1263      F1273   1.384   1_455  S
C1277      C1278   1.399       .  A
C1277      C1282   1.405       .  A
C1277      H1287   1.084       .  S
C1278      C1279   1.415       .  A
C1278      C1283   1.486       .  S
C1279      C1280   1.406       .  A
C1279      C1284   1.519       .  S
C1280      C1281   1.402       .  A
C1280      H1285   1.078       .  S
C1281      C1282   1.423       .  A
C1282      C1286   1.520       .  S
C1283      C1288   1.415       .  A
C1283      C1292   1.402       .  A
C1284      F1300   1.383       .  S
C1284      F1301   1.382       .  S
C1284      F1302   1.384       .  S
C1286      F1297   1.383       .  S
C1286      F1298   1.384       .  S
C1286      F1299   1.380       .  S
C1288      C1289   1.404       .  A
C1288      C1293   1.514       .  S
C1289      C1290   1.400       .  A
C1289      H1294   1.084       .  S
C1290      C1291   1.418       .  A
C1291      C1292   1.407       .  A
C1291      C1295   1.517       .  S
C1292      H1296   1.085       .  S
C1293      F1306   1.384       .  S
C1293      F1307   1.382       .  S
C1293      F1308   1.383       .  S
C1295      F1303   1.384       .  S
C1295      F1304   1.382       .  S
C1295      F1305   1.383       .  S
C1309      C1310   1.402       .  A
C1309      C1314   1.408       .  A
C1309      H1319   1.085       .  S
C1310      C1311   1.414       .  A
C1310      C1315   1.488       .  S
C1311      C1312   1.403       .  A
C1311      C1316   1.511       .  S
C1312      C1313   1.400       .  A
C1312      H1317   1.084       .  S
C1313      C1314   1.420       .  A
C1314      C1318   1.517       .  S
C1315      C1320   1.412       .  A
C1315      C1324   1.404       .  A
C1316      F1332   1.381       .  S
C1316      F1333   1.382       .  S
C1316      F1334   1.385       .  S
C1318      F1329   1.384       .  S
C1318      F1330   1.383       .  S
C1318      F1331   1.382       .  S
C1320      C1321   1.404       .  A
C1320      C1325   1.520       .  S
C1321      C1322   1.405       .  A
C1321      H1326   1.078       .  S
C1322      C1323   1.420       .  A
C1323      C1324   1.410       .  A
C1323      C1327   1.517       .  S
C1324      H1328   1.084       .  S
C1325      F1338   1.384       .  S
C1325      F1339   1.382       .  S
C1325      F1340   1.382       .  S
C1327      F1335   1.383       .  S
C1327      F1336   1.380       .  S
C1327      F1337   1.383       .  S
C1341      C1342   1.403       .  A
C1341      C1346   1.408       .  A
C1341      H1351   1.083       .  S
C1342      C1343   1.414       .  A
C1342      C1347   1.483       .  S
C1343      C1344   1.400       .  A
C1343      C1348   1.511       .  S
C1344      C1345   1.398       .  A
C1344      H1349   1.084       .  S
C1345      C1346   1.415       .  A
C1346      C1350   1.517       .  S
C1347      C1352   1.411       .  A
C1347      C1356   1.403       .  A
C1348      F1364   1.381       .  S
C1348      F1365   1.381       .  S
C1348      F1366   1.385       .  S
C1350      F1361   1.382       .  S
C1350      F1362   1.385       .  S
C1350      F1363   1.383       .  S
C1352      C1353   1.402       .  A
C1352      C1357   1.521       .  S
C1353      C1354   1.404       .  A
C1353      H1358   1.077       .  S
C1354      C1355   1.420       .  A
C1355      C1356   1.408       .  A
C1355      C1359   1.516       .  S
C1356      H1360   1.084       .  S
C1357      F1370   1.384       .  S
C1357      F1371   1.382       .  S
C1357      F1372   1.382       .  S
C1359      F1367   1.383       .  S
C1359      F1368   1.379       .  S
C1359      F1369   1.383       .  S
C1373      C1374   1.401       .  A
C1373      C1378   1.404       .  A
C1373      H1383   1.081       .  S
C1374      C1375   1.418       .  A
C1374      C1379   1.483       .  S
C1375      C1376   1.404       .  A
C1375      C1380   1.515       .  S
C1376      C1377   1.399       .  A
C1376      H1381   1.083       .  S
C1377      C1378   1.413       .  A
C1378      C1382   1.517       .  S
C1379      C1384   1.412       .  A
C1379      C1388   1.399       .  A
C1380      F1396   1.382       .  S
C1380      F1397   1.380       .  S
C1380      F1398   1.385       .  S
C1382      F1393   1.383       .  S
C1382      F1394   1.384       .  S
C1382      F1395   1.381       .  S
C1384      C1385   1.406       .  A
C1384      C1389   1.519       .  S
C1385      C1386   1.409       .  A
C1385      H1390   1.082       .  S
C1386      C1387   1.423       .  A
C1387      C1388   1.404       .  A
C1387      C1391   1.513       .  S
C1388      H1392   1.085       .  S
C1389      F1402   1.385       .  S
C1389      F1403   1.382       .  S
C1389      F1404   1.382       .  S
C1391      F1399   1.383       .  S
C1391      F1400   1.372       .  S
C1391      F1401   1.383       .  S
C1405      C1406   1.397       .  A
C1405      C1410   1.401       .  A
C1405      H1415   1.085       .  S
C1406      C1407   1.414       .  A
C1406      C1411   1.473       .  S
C1407      C1408   1.402       .  A
C1407      C1412   1.520       .  S
C1408      C1409   1.402       .  A
C1408      H1413   1.079       .  S
C1409      C1410   1.421       .  A
C1410      C1414   1.520       .  S
C1411      C1416   1.413       .  A
C1411      C1420   1.399       .  A
C1412      F1428   1.382       .  S
C1412      F1429   1.382       .  S
C1412      F1430   1.385       .  S
C1414      F1425   1.383       .  S
C1414      F1426   1.383       .  S
C1414      F1427   1.380       .  S
C1416      C1417   1.405       .  A
C1416      C1421   1.520       .  S
C1417      C1418   1.403       .  A
C1417      H1422   1.083       .  S
C1418      C1419   1.417       .  A
C1419      C1420   1.400       .  A
C1419      C1423   1.519       .  S
C1420      H1424   1.085       .  S
C1421      F1434   1.384       .  S
C1421      F1435   1.383       .  S
C1421      F1436   1.382       .  S
C1423      F1431   1.384       .  S
C1423      F1432   1.381       .  S
C1423      F1433   1.383       .  S
C1437      C1438   1.404       .  A
C1437      C1442   1.410       .  A
C1437      H1447   1.081       .  S
C1438      C1439   1.415       .  A
C1438      C1443   1.486       .  S
C1439      C1440   1.405       .  A
C1439      C1444   1.521       .  S
C1440      C1441   1.404       .  A
C1440      H1445   1.083       .  S
C1441      C1442   1.416       .  A
C1442      C1446   1.518       .  S
C1443      C1448   1.416       .  A
C1443      C1452   1.397       .  A
C1444      F1460   1.382       .  S
C1444      F1461   1.382       .  S
C1444      F1462   1.384       .  S
C1446      F1457   1.381       .  S
C1446      F1458   1.385       .  S
C1446      F1459   1.383       .  S
C1448      C1449   1.409       .  A
C1448      C1453   1.519       .  S
C1449      C1450   1.406       .  A
C1449      H1454   1.081       .  S
C1450      C1451   1.424       .  A
C1451      C1452   1.402       .  A
C1451      C1455   1.519       .  S
C1452      H1456   1.085       .  S
C1453      F1466   1.385       .  S
C1453      F1467   1.381       .  S
C1453      F1468   1.382       .  S
C1455      F1463   1.383       .  S
C1455      F1464   1.375       .  S
C1455      F1465   1.384       .  S
C1469      C1470   1.402       .  A
C1469      C1474   1.406       .  A
C1469      H1479   1.088       .  S
C1470      C1471   1.418       .  A
C1470      C1475   1.496       .  S
C1471      C1472   1.402       .  A
C1471      C1476   1.512       .  S
C1472      C1473   1.402       .  A
C1472      H1477   1.091       .  S
C1473      C1474   1.430       .  A
C1474      C1478   1.520       .  S
C1475      C1480   1.416       .  A
C1475      C1484   1.409       .  A
C1476      F1492   1.380       .  S
C1476      F1493   1.382       .  S
C1476      F1494   1.381       .  S
C1478      F1489   1.383       .  S
C1478      F1490   1.381       .  S
C1478      F1491   1.382       .  S
C1480      C1481   1.393       .  A
C1480      C1485   1.519       .  S
C1481      C1482   1.412       .  A
C1481      H1486   1.079       .  S
C1482      C1483   1.427       .  A
C1483      C1484   1.413       .  A
C1483      C1487   1.518       .  S
C1484      H1488   1.083       .  S
C1485      F1498   1.384       .  S
C1485      F1499   1.378       .  S
C1485      F1500   1.382       .  S
C1487      F1495   1.385       .  S
C1487      F1496   1.383       .  S
C1487      F1497   1.383       .  S
C1501      C1502   1.395       .  A
C1501      C1506   1.399       .  A
C1501      H1511   1.085       .  S
C1502      C1503   1.413       .  A
C1502      C1507   1.475       .  S
C1503      C1504   1.406       .  A
C1503      C1508   1.520       .  S
C1504      C1505   1.405       .  A
C1504      H1509   1.082       .  S
C1505      C1506   1.423       .  A
C1506      C1510   1.517       .  S
C1507      C1512   1.416       .  A
C1507      C1516   1.402       .  A
C1508      F1524   1.382       .  S
C1508      F1525   1.382       .  S
C1508      F1526   1.384       .  S
C1510      F1521   1.383       .  S
C1510      F1522   1.382       .  S
C1510      F1523   1.377       .  S
C1512      C1513   1.403       .  A
C1512      C1517   1.520       .  S
C1513      C1514   1.400       .  A
C1513      H1518   1.083       .  S
C1514      C1515   1.414       .  A
C1515      C1516   1.404       .  A
C1515      C1519   1.518       .  S
C1516      H1520   1.083       .  S
C1517      F1530   1.384       .  S
C1517      F1531   1.382       .  S
C1517      F1532   1.381       .  S
C1519      F1527   1.384       .  S
C1519      F1528   1.383       .  S
C1519      F1529   1.383       .  S
C1533      C1534   1.404       .  A
C1533      C1538   1.411       .  A
C1533      H1543   1.083       .  S
C1534      C1535   1.418       .  A
C1534      C1539   1.490       .  S
C1535      C1536   1.405       .  A
C1535      C1540   1.516       .  S
C1536      C1537   1.399       .  A
C1536      H1541   1.083       .  S
C1537      C1538   1.416       .  A
C1538      C1542   1.517       .  S
C1539      C1544   1.417       .  A
C1539      C1548   1.397       .  A
C1540      F1556   1.382       .  S
C1540      F1557   1.382       .  S
C1540      F1558   1.385       .  S
C1542      F1553   1.383       .  S
C1542      F1554   1.384       .  S
C1542      F1555   1.383   1_655  S
C1544      C1545   1.412       .  A
C1544      C1549   1.518       .  S
C1545      C1546   1.405       .  A
C1545      H1550   1.082       .  S
C1546      C1547   1.424       .  A
C1547      C1548   1.402       .  A
C1547      C1551   1.517       .  S
C1548      H1552   1.085       .  S
C1549      F1562   1.384       .  S
C1549      F1563   1.382       .  S
C1549      F1564   1.383       .  S
C1551      F1559   1.383       .  S
C1551      F1560   1.375       .  S
C1551      F1561   1.384       .  S
C1565      C1566   1.402       .  A
C1565      C1570   1.402       .  A
C1565      H1575   1.084       .  S
C1566      C1567   1.419       .  A
C1566      C1571   1.474       .  S
C1567      C1568   1.404       .  A
C1567      C1572   1.520       .  S
C1568      C1569   1.401       .  A
C1568      H1573   1.085       .  S
C1569      C1570   1.414       .  A
C1570      C1574   1.518       .  S
C1571      C1576   1.412       .  A
C1571      C1580   1.398       .  A
C1572      F1588   1.383       .  S
C1572      F1589   1.382       .  S
C1572      F1590   1.384       .  S
C1574      F1585   1.381       .  S
C1574      F1586   1.384       .  S
C1574      F1587   1.383       .  S
C1576      C1577   1.402       .  A
C1576      C1581   1.518       .  S
C1577      C1578   1.404       .  A
C1577      H1582   1.080       .  S
C1578      C1579   1.422       .  A
C1579      C1580   1.401       .  A
C1579      C1583   1.520       .  S
C1580      H1584   1.085       .  S
C1581      F1594   1.385       .  S
C1581      F1595   1.382       .  S
C1581      F1596   1.382       .  S
C1583      F1591   1.383       .  S
C1583      F1592   1.380       .  S
C1583      F1593   1.383       .  S
C1597      C1598   1.401       .  A
C1597      C1602   1.405       .  A
C1597      H1607   1.085       .  S
C1598      C1599   1.413       .  A
C1598      C1603   1.485       .  S
C1599      C1600   1.404       .  A
C1599      C1604   1.519       .  S
C1600      C1601   1.406       .  A
C1600      H1605   1.082       .  S
C1601      C1602   1.421       .  A
C1602      C1606   1.514       .  S
C1603      C1608   1.416       .  A
C1603      C1612   1.399       .  A
C1604      F1620   1.382       .  S
C1604      F1621   1.383       .  S
C1604      F1622   1.385       .  S
C1606      F1617   1.380       .  S
C1606      F1618   1.383       .  S
C1606      F1619   1.373       .  S
C1608      C1609   1.405       .  A
C1608      C1613   1.512       .  S
C1609      C1610   1.401       .  A
C1609      H1614   1.084       .  S
C1610      C1611   1.417       .  A
C1611      C1612   1.402       .  A
C1611      C1615   1.517       .  S
C1612      H1616   1.082       .  S
C1613      F1626   1.385       .  S
C1613      F1627   1.380       .  S
C1613      F1628   1.382       .  S
C1615      F1623   1.383       .  S
C1615      F1624   1.381       .  S
C1615      F1625   1.383       .  S
C1629      C1630   1.402       .  A
C1629      C1634   1.408       .  A
C1629      H1639   1.083       .  S
C1630      C1631   1.416       .  A
C1630      C1635   1.483       .  S
C1631      C1632   1.406       .  A
C1631      C1636   1.519       .  S
C1632      C1633   1.404       .  A
C1632      H1637   1.083       .  S
C1633      C1634   1.418       .  A
C1634      C1638   1.519       .  S
C1635      C1640   1.412       .  A
C1635      C1644   1.399       .  A
C1636      F1652   1.382       .  S
C1636      F1653   1.382       .  S
C1636      F1654   1.385       .  S
C1638      F1649   1.382       .  S
C1638      F1650   1.385       .  S
C1638      F1651   1.382       .  S
C1640      C1641   1.406       .  A
C1640      C1645   1.518       .  S
C1641      C1642   1.407       .  A
C1641      H1646   1.083       .  S
C1642      C1643   1.422       .  A
C1643      C1644   1.404       .  A
C1643      C1647   1.511       .  S
C1644      H1648   1.085       .  S
C1645      F1658   1.385       .  S
C1645      F1659   1.382       .  S
C1645      F1660   1.382       .  S
C1647      F1655   1.382       .  S
C1647      F1656   1.371       .  S
C1647      F1657   1.383       .  S
C1661      C1662   1.401       .  A
C1661      C1666   1.407       .  A
C1661      H1671   1.083       .  S
C1662      C1663   1.418       .  A
C1662      C1667   1.486       .  S
C1663      C1664   1.410       .  A
C1663      C1668   1.520       .  S
C1664      C1665   1.403       .  A
C1664      H1669   1.083       .  S
C1665      C1666   1.416       .  A
C1666      C1670   1.517       .  S
C1667      C1672   1.415       .  A
C1667      C1676   1.397       .  A
C1668      F1684   1.382       .  S
C1668      F1685   1.382       .  S
C1668      F1686   1.384       .  S
C1670      F1681   1.382       .  S
C1670      F1682   1.383       .  S
C1670      F1683   1.383       .  S
C1672      C1673   1.408       .  A
C1672      C1677   1.518       .  S
C1673      C1674   1.406       .  A
C1673      H1678   1.081       .  S
C1674      C1675   1.423       .  A
C1675      C1676   1.403       .  A
C1675      C1679   1.516       .  S
C1676      H1680   1.085       .  S
C1677      F1690   1.385       .  S
C1677      F1691   1.382       .  S
C1677      F1692   1.382       .  S
C1679      F1687   1.382       .  S
C1679      F1688   1.375       .  S
C1679      F1689   1.383       .  S
C1693      C1694   1.399       .  A
C1693      C1698   1.402       .  A
C1693      H1703   1.085       .  S
C1694      C1695   1.416       .  A
C1694      C1699   1.483       .  S
C1695      C1696   1.411       .  A
C1695      C1700   1.519       .  S
C1696      C1697   1.405       .  A
C1696      H1701   1.083       .  S
C1697      C1698   1.419       .  A
C1698      C1702   1.517       .  S
C1699      C1704   1.416       .  A
C1699      C1708   1.398       .  A
C1700      F1716   1.383       .  S
C1700      F1717   1.383       .  S
C1700      F1718   1.384       .  S
C1702      F1713   1.383       .  S
C1702      F1714   1.384       .  S
C1702      F1715   1.382       .  S
C1704      C1705   1.405       .  A
C1704      C1709   1.519       .  S
C1705      C1706   1.402       .  A
C1705      H1710   1.081       .  S
C1706      C1707   1.425       .  A
C1707      C1708   1.405       .  A
C1707      C1711   1.521       .  S
C1708      H1712   1.085       .  S
C1709      F1722   1.385       .  S
C1709      F1723   1.382       .  S
C1709      F1724   1.382       .  S
C1711      F1719   1.383       .  S
C1711      F1720   1.380       .  S
C1711      F1721   1.383       .  S
C1725      C1726   1.401       .  A
C1725      C1730   1.405       .  A
C1725      H1735   1.085       .  S
C1726      C1727   1.417       .  A
C1726      C1731   1.485       .  S
C1727      C1728   1.408       .  A
C1727      C1732   1.519       .  S
C1728      C1729   1.403       .  A
C1728      H1733   1.083       .  S
C1729      C1730   1.419       .  A
C1730      C1734   1.520       .  S
C1731      C1736   1.415       .  A
C1731      C1740   1.397       .  A
C1732      F1748   1.382       .  S
C1732      F1749   1.381       .  S
C1732      F1750   1.384       .  S
C1734      F1745   1.383       .  S
C1734      F1746   1.383   1_655  S
C1734      F1747   1.381       .  S
C1736      C1737   1.409       .  A
C1736      C1741   1.519       .  S
C1737      C1738   1.407       .  A
C1737      H1742   1.082       .  S
C1738      C1739   1.424       .  A
C1739      C1740   1.402       .  A
C1739      C1743   1.517       .  S
C1740      H1744   1.085       .  S
C1741      F1754   1.384       .  S
C1741      F1755   1.381       .  S
C1741      F1756   1.382       .  S
C1743      F1751   1.383       .  S
C1743      F1752   1.377       .  S
C1743      F1753   1.381       .  S
C1757      C1758   1.404       .  A
C1757      C1762   1.406       .  A
C1757      H1767   1.081       .  S
C1758      C1759   1.419       .  A
C1758      C1763   1.490       .  S
C1759      C1760   1.408       .  A
C1759      C1764   1.518       .  S
C1760      C1761   1.401       .  A
C1760      H1765   1.083       .  S
C1761      C1762   1.413       .  A
C1762      C1766   1.517       .  S
C1763      C1768   1.415       .  A
C1763      C1772   1.402       .  A
C1764      F1780   1.381       .  S
C1764      F1781   1.381       .  S
C1764      F1782   1.385       .  S
C1766      F1777   1.384       .  S
C1766      F1778   1.382       .  S
C1766      F1779   1.383   1_655  S
C1768      C1769   1.407       .  A
C1768      C1773   1.519       .  S
C1769      C1770   1.407       .  A
C1769      H1774   1.083       .  S
C1770      C1771   1.420       .  A
C1771      C1772   1.406       .  A
C1771      C1775   1.513       .  S
C1772      H1776   1.084       .  S
C1773      F1786   1.385       .  S
C1773      F1787   1.381       .  S
C1773      F1788   1.382       .  S
C1775      F1783   1.383       .  S
C1775      F1784   1.374       .  S
C1775      F1785   1.383       .  S
C1789      C1790   1.398       .  A
C1789      C1794   1.403       .  A
C1789      H1799   1.085       .  S
C1790      C1791   1.414       .  A
C1790      C1795   1.480       .  S
C1791      C1792   1.406       .  A
C1791      C1796   1.522       .  S
C1792      C1793   1.405       .  A
C1792      H1797   1.080       .  S
C1793      C1794   1.423       .  A
C1794      C1798   1.521       .  S
C1795      C1800   1.414       .  A
C1795      C1804   1.403       .  A
C1796      F1812   1.380       .  S
C1796      F1813   1.381       .  S
C1796      F1814   1.384       .  S
C1798      F1809   1.383       .  S
C1798      F1810   1.383       .  S
C1798      F1811   1.380       .  S
C1800      C1801   1.401       .  A
C1800      C1805   1.514       .  S
C1801      C1802   1.399       .  A
C1801      H1806   1.084       .  S
C1802      C1803   1.414       .  A
C1803      C1804   1.407       .  A
C1803      C1807   1.516   1_655  S
C1804      H1808   1.083       .  S
C1805      F1818   1.384       .  S
C1805      F1819   1.382       .  S
C1805      F1820   1.381       .  S
C1807      F1815   1.385       .  S
C1807      F1816   1.383       .  S
C1807      F1817   1.383       .  S
C1821      C1822   1.402       .  A
C1821      C1826   1.408       .  A
C1821      H1831   1.083       .  S
C1822      C1823   1.416       .  A
C1822      C1827   1.485       .  S
C1823      C1824   1.403       .  A
C1823      C1828   1.511       .  S
C1824      C1825   1.398       .  A
C1824      H1829   1.083       .  S
C1825      C1826   1.414       .  A
C1826      C1830   1.516       .  S
C1827      C1832   1.412       .  A
C1827      C1836   1.402       .  A
C1828      F1844   1.379       .  S
C1828      F1845   1.382       .  S
C1828      F1846   1.385       .  S
C1830      F1841   1.383       .  S
C1830      F1842   1.385       .  S
C1830      F1843   1.383       .  S
C1832      C1833   1.404       .  A
C1832      C1837   1.518       .  S
C1833      C1834   1.406       .  A
C1833      H1838   1.082       .  S
C1834      C1835   1.419       .  A
C1835      C1836   1.406       .  A
C1835      C1839   1.514       .  S
C1836      H1840   1.085       .  S
C1837      F1850   1.385       .  S
C1837      F1851   1.382       .  S
C1837      F1852   1.382       .  S
C1839      F1847   1.383       .  S
C1839      F1848   1.377       .  S
C1839      F1849   1.383       .  S
C1853      C1854   1.404       .  A
C1853      C1858   1.408       .  A
C1853      H1863   1.083       .  S
C1854      C1855   1.418       .  A
C1854      C1859   1.479       .  S
C1855      C1856   1.402       .  A
C1855      C1860   1.519       .  S
C1856      C1857   1.401       .  A
C1856      H1861   1.085       .  S
C1857      C1858   1.415       .  A
C1858      C1862   1.518       .  S
C1859      C1864   1.410       .  A
C1859      C1868   1.401       .  A
C1860      F1876   1.381       .  S
C1860      F1877   1.384       .  S
C1860      F1878   1.382       .  S
C1862      F1873   1.382       .  S
C1862      F1874   1.385       .  S
C1862      F1875   1.383       .  S
C1864      C1865   1.403       .  A
C1864      C1869   1.518       .  S
C1865      C1866   1.405       .  A
C1865      H1870   1.082       .  S
C1866      C1867   1.420       .  A
C1867      C1868   1.406       .  A
C1867      C1871   1.514       .  S
C1868      H1872   1.085       .  S
C1869      F1882   1.384       .  S
C1869      F1883   1.383       .  S
C1869      F1884   1.382       .  S
C1871      F1879   1.383       .  S
C1871      F1880   1.377       .  S
C1871      F1881   1.383       .  S
