geometry optimzed in LAMMPS
_audit_creation_date              2020-12-01 
_audit_creation_method            'lammps2cif' 
_symmetry_space_group_name_H-M    'P1' 
_symmetry_Int_Tables_number       1 
_symmetry_cell_setting            triclinic 
loop_ 
_symmetry_equiv_pos_as_xyz 
  x,y,z 
_cell_length_a                    46.35387247 
_cell_length_b                    46.13730114779637 
_cell_length_c                    65.95299721006128 
_cell_angle_alpha                 90.15646201988851 
_cell_angle_beta                  90.57640567989682 
_cell_angle_gamma                 86.62279016918275 
loop_ 
_atom_site_label 
_atom_site_type_symbol 
_atom_site_fract_x 
_atom_site_fract_y 
_atom_site_fract_z 
_atom_site_charge 
C1          C  0.25184439  0.99986685  0.25183974    -0.02200
C2          C  0.46637407  0.25953931  0.01371561     0.02500
C3          C  0.46363974  0.25857086  0.99239228     0.02500
C4          C  0.48885937  0.25755307  0.98075196    -0.18000
C5          C  0.01632629  0.25933486  0.99009152     0.02500
C6          C  0.01862949  0.26167969  0.01135813     0.02500
C7          C  0.49360430  0.26082861  0.02283211    -0.18000
H8          H  0.49531862  0.26199765  0.03923963     0.04500
H9          H  0.48715833  0.25616622  0.96436493     0.04500
C10         C  0.26248611  0.00578739  0.75000868    -0.02200
C11         C  0.48652781  0.24142694  0.75173489    -0.02200
C12         C  0.23142445  0.48215291  0.00921816     0.02500
C13         C  0.22795341  0.48217380  0.98792632     0.02500
C14         C  0.24614298  0.00843156  0.97687644    -0.18000
C15         C  0.25148976  0.03342334  0.98800158     0.02500
C16         C  0.25228938  0.03217738  0.00931831     0.02500
C17         C  0.24944176  0.00570224  0.01905086    -0.18000
H18         H  0.25067120  0.00472242  0.03547350     0.04500
H19         H  0.24488567  0.00966105  0.96046788     0.04500
O20         O  0.29080322  0.25268186  0.88497042    -0.79900
O21         O  0.25141341  0.20263723  0.84087349    -0.79900
O22         O  0.23391532  0.23260746  0.90461560    -0.79900
O23         O  0.26914900  0.26565155  0.81748020    -0.79900
O24         O  0.25346351  0.20521960  0.88108927    -0.80000
O25         O  0.29419059  0.24843868  0.84365036    -0.79900
O26         O  0.22899084  0.22537621  0.81612359    -0.79900
O27         O  0.26097602  0.27348243  0.90634720    -0.79900
C28         C  0.28572043  0.26112387  0.90291904     1.09800
C29         C  0.24413363  0.20329654  0.82257337     1.09700
C30         C  0.24681779  0.20881561  0.89933746     1.09800
C31         C  0.29233529  0.25319744  0.82487011     1.09700
O32         O  0.27217253  0.30825752  0.83990000    -0.79900
O33         O  0.19094414  0.22223142  0.88272297    -0.80000
O34         O  0.21861709  0.30759130  0.88290218    -0.79900
O35         O  0.18613439  0.26628718  0.83506992    -0.79900
O36         O  0.18909568  0.21957311  0.84121859    -0.79900
O37         O  0.26477219  0.31250397  0.88073743    -0.79900
O38         O  0.22567343  0.30825981  0.83538032    -0.79900
O39         O  0.18863223  0.26860908  0.89014957    -0.79900
Co40       Co  0.27776317  0.27801754  0.86193726     1.51500
Co41       Co  0.22309865  0.21537945  0.86111732     1.51700
Co42       Co  0.22899418  0.26726627  0.88571237     1.51600
Co43       Co  0.22772741  0.26642348  0.82822158     1.51500
O44         O  0.23918864  0.25647763  0.85795554    -1.41800
C45         C  0.24859100  0.32154857  0.83461570     1.09700
C46         C  0.17854447  0.24435819  0.89151792     1.09800
C47         C  0.23960841  0.32252385  0.88604946     1.09800
C48         C  0.17449765  0.24220888  0.83510243     1.09700
O49         O  0.29222196  0.24512773  0.15294083    -0.79900
O50         O  0.24578190  0.19879020  0.11985460    -0.79900
O51         O  0.22883434  0.22026559  0.18568867    -0.79900
O52         O  0.27898906  0.25146638  0.10938648    -0.79900
O53         O  0.24466402  0.19420999  0.16001416    -0.80000
O54         O  0.30188959  0.28614266  0.12445403    -0.79900
O55         O  0.22839830  0.22904349  0.09769296    -0.79900
O56         O  0.27117044  0.25996966  0.18132011    -0.79900
C57         C  0.29331286  0.24911019  0.17192560     1.09800
C58         C  0.24006411  0.20445807  0.10162336     1.09700
C59         C  0.23931761  0.19623209  0.17863499     1.09800
C60         C  0.30135599  0.26681767  0.11080730     1.09700
O61         O  0.24637188  0.30633694  0.11924540    -0.79900
O62         O  0.18482425  0.21633103  0.16102559    -0.80000
O63         O  0.22612587  0.30279899  0.16647513    -0.79900
O64         O  0.19414642  0.27245241  0.11829143    -0.79900
O65         O  0.18578473  0.22588950  0.12004817    -0.79900
O66         O  0.27089211  0.30390814  0.15757727    -0.79900
O67         O  0.23600495  0.28338840  0.09120112    -0.79900
O68         O  0.18618709  0.26226151  0.16952482    -0.79900
Co69       Co  0.26810208  0.27281945  0.13646328     1.51500
Co70       Co  0.21671868  0.21086658  0.14033561     1.51700
Co71       Co  0.22833628  0.26116205  0.17387728     1.51600
Co72       Co  0.23556076  0.26283956  0.11563020     1.51500
O73         O  0.23442008  0.24959405  0.14436047    -1.41800
C74         C  0.24032045  0.30696155  0.09998906     1.09700
C75         C  0.17298152  0.23911132  0.16904144     1.09800
C76         C  0.24872145  0.31651396  0.16538829     1.09800
C77         C  0.17799544  0.25189089  0.11466414     1.09700
O78         O  0.06702947  0.02365927  0.65880023    -0.79900
O79         O  0.47851969  0.44550931  0.62038680    -0.79900
O80         O  0.01980845  0.44027273  0.66976677    -0.79900
O81         O  0.04037972  0.48992087  0.59142542    -0.79900
O82         O  0.47355274  0.44202492  0.66139318    -0.80000
O83         O  0.06654750  0.00039117  0.62007828    -0.79900
O84         O  0.02570020  0.44812274  0.61773537    -0.79900
O85         O  0.06195588  0.47910121  0.66755950    -0.79900
C86         C  0.07830590  0.00075002  0.66661645     1.09800
C87         C  0.50291729  0.43495711  0.61408238     1.09700
C88         C  0.49605681  0.42820219  0.66852425     1.09800
C89         C  0.06683491  0.99334115  0.60095763     1.09700
O90         O  0.05143858  0.05716797  0.62671095    -0.79900
O91         O  0.45546470  0.50438748  0.66229934    -0.80000
O92         O  0.02288492  0.02429093  0.68340383    -0.79900
O93         O  0.48686027  0.99200547  0.59881079    -0.79900
O94         O  0.45769047  0.50737744  0.62231008    -0.79900
O95         O  0.01022213  0.04903178  0.65553244    -0.79900
O96         O  0.01701885  0.03590260  0.61004483    -0.79900
O97         O  0.48203892  0.98299379  0.68692521    -0.79900
Co98       Co  0.03536561  0.02390729  0.63801145     1.51500
Co99       Co  0.46840936  0.47616124  0.64176906     1.51700
Co100      Co  0.02233024  0.98199118  0.67449930     1.51600
Co101      Co  0.02275033  0.99140784  0.61604416     1.51500
O102        O  0.01028046  0.99125344  0.64506211    -1.41800
C103        C  0.03369218  0.05716743  0.61206418     1.09700
C104        C  0.45655704  0.49578861  0.68025618     1.09800
C105        C  0.01350630  0.04777490  0.67464778     1.09800
C106        C  0.46152065  0.50179438  0.60388579     1.09700
O107        O  0.99988229  0.04502186  0.34693063    -0.79900
O108        O  0.45467619  0.50435169  0.38135646    -0.79900
O109        O  0.47170044  0.48443147  0.31522207    -0.79900
O110        O  0.00968289  0.03248388  0.39130814    -0.79900
O111        O  0.44861230  0.50304357  0.34137736    -0.80000
O112        O  0.04225785  0.05549701  0.37465207    -0.79900
O113        O  0.48417402  0.48484184  0.40328545    -0.79900
O114        O  0.01350141  0.02315608  0.31859449    -0.79900
C115        C  0.00267316  0.04558551  0.32789091     1.09800
C116        C  0.46044742  0.49834337  0.39954417     1.09700
C117        C  0.44891915  0.49645242  0.32296195     1.09800
C118        C  0.02463584  0.05509172  0.38915826     1.09700
O119        O  0.06193393  0.00004102  0.38056093    -0.79900
O120        O  0.46604044  0.44111422  0.34015991    -0.80000
O121        O  0.05485922  0.47656266  0.33318573    -0.79900
O122        O  0.02341220  0.44629909  0.38256833    -0.79900
O123        O  0.47618233  0.44240464  0.38102562    -0.79900
O124        O  0.05818414  0.02194760  0.34186657    -0.79900
O125        O  0.03950407  0.48789275  0.40895187    -0.79900
O126        O  0.01167810  0.43886611  0.33064681    -0.79900
Co127      Co  0.02791428  0.02126630  0.36334733     1.51500
Co128      Co  0.46347000  0.47400301  0.36079023     1.51700
Co129      Co  0.01306392  0.48112734  0.32643959     1.51600
Co130      Co  0.01780534  0.48855693  0.38496722     1.51500
O131        O  0.00342878  0.48815581  0.35634680    -1.41800
C132        C  0.06338534  0.99426105  0.39982477     1.09700
C133        C  0.48752727  0.42746623  0.33184724     1.09800
C134        C  0.07005447  0.99865330  0.33490743     1.09800
C135        C  0.50139734  0.43252393  0.38658529     1.09700
C136        C  0.52110653  0.27233071  0.48979132     0.02500
C137        C  0.52472889  0.27235065  0.51120484     0.02500
C138        C  0.52795935  0.24557420  0.52133525    -0.18000
C139        C  0.52595272  0.21921850  0.51102451     0.02500
C140        C  0.52020596  0.21929217  0.49006327     0.02500
C141        C  0.51791362  0.24579252  0.47973349    -0.18000
H142        H  0.51355915  0.24571886  0.46354434     0.04500
H143        H  0.53101980  0.24525246  0.53767070     0.04500
C144        C  0.28897784  0.50616550  0.51180952     0.02500
C145        C  0.29024891  0.50653087  0.49055895     0.02500
C146        C  0.26513185  0.50380000  0.47907624    -0.18000
C147        C  0.23856010  0.50074783  0.48848601     0.02500
C148        C  0.23707443  0.50092487  0.50991912     0.02500
C149        C  0.26247025  0.50353258  0.52134338    -0.18000
H150        H  0.26165133  0.50325885  0.53777119     0.04500
H151        H  0.26633040  0.50375550  0.46265565     0.04500
C152        C  0.98678713  0.23806625  0.24957309    -0.02200
C153        C  0.00702581  0.31309059  0.27504528    -0.22200
C154        C  0.48525810  0.31659087  0.28961675     0.09800
C155        C  0.46571690  0.29466456  0.29169478     0.10200
C156        C  0.46786871  0.27015719  0.27886442    -0.17100
C157        C  0.48888313  0.26637863  0.26330966    -0.27600
C158        C  0.01020521  0.28833763  0.26246377     0.18500
C159        C  0.48400239  0.34361011  0.30232610     0.12500
C160        C  0.44256970  0.29703816  0.30756448    -0.11900
H161        H  0.45204533  0.25399487  0.28055900     0.12700
C162        C  0.03734997  0.28749143  0.24976310    -0.22700
H163        H  0.02197605  0.33020530  0.27370082     0.08400
C164        C  0.00591428  0.34889084  0.31690736     0.04700
C165        C  0.00581456  0.37608408  0.32669708    -0.20000
C166        C  0.48437681  0.39836084  0.32239592    -0.12300
C167        C  0.46230021  0.39277225  0.30800776     0.13400
C168        C  0.46239260  0.36548302  0.29833627    -0.22700
C169        C  0.02913490  0.32584991  0.32219254    -0.05800
H170        H  0.02271550  0.38020396  0.33763156     0.15000
C171        C  0.43923046  0.41527825  0.30136445    -0.15900
H172        H  0.44607513  0.36165734  0.28689589     0.09300
H173        H  0.05389721  0.30105738  0.25666624     0.07100
H174        H  0.03273211  0.29708518  0.23465031     0.08300
H175        H  0.04862558  0.26583740  0.24883896     0.07400
H176        H  0.42789879  0.31649759  0.30467336     0.02300
H177        H  0.45267679  0.29890979  0.32281183     0.02700
H178        H  0.42933083  0.27774305  0.30754592     0.06200
H179        H  0.04373531  0.33318085  0.33438511     0.05200
H180        H  0.04251140  0.32033510  0.30871848    -0.00500
H181        H  0.01904605  0.30605660  0.32754967     0.00900
H182        H  0.44035654  0.41833728  0.28469958     0.04600
H183        H  0.44129655  0.43676008  0.30838769     0.06500
H184        H  0.41761379  0.40774974  0.30512642     0.07400
C185        C  0.47376409  0.12303526  0.31408600    -0.22200
C186        C  0.98972757  0.12819548  0.29670748     0.09800
C187        C  0.00802763  0.10553287  0.28865177     0.10200
C188        C  0.01091104  0.07856578  0.29868047    -0.17100
C189        C  0.99611226  0.07356243  0.31677318    -0.27600
C190        C  0.47666982  0.09618594  0.32425628     0.18500
C191        C  0.98698936  0.15756129  0.28710683     0.12500
C192        C  0.02451448  0.10981969  0.26941811    -0.11900
H193        H  0.02554222  0.06158483  0.29262714     0.12700
C194        C  0.45878616  0.09233668  0.34293278    -0.22700
H195        H  0.45962233  0.14044481  0.32012662     0.08400
C196        C  0.46194201  0.16729812  0.27575859     0.04700
C197        C  0.46148197  0.19433892  0.26591494    -0.20000
C198        C  0.98646962  0.21130991  0.26502330    -0.12300
C199        C  0.00949135  0.20292186  0.27906139     0.13400
C200        C  0.00950018  0.17616767  0.28935150    -0.22700
C201        C  0.43628310  0.14883701  0.27376253    -0.05800
H202        H  0.44139213  0.20138376  0.25862505     0.15000
C203        C  0.03544931  0.22014163  0.28341521    -0.15900
H204        H  0.02778558  0.16935551  0.29895551     0.09300
H205        H  0.44329695  0.11125347  0.34550713     0.07100
H206        H  0.47293794  0.09023079  0.35657965     0.08300
H207        H  0.44608547  0.07278604  0.34122009     0.07400
H208        H  0.03964451  0.12736922  0.27155617     0.02300
H209        H  0.00917007  0.11581978  0.25687358     0.02700
H210        H  0.03736317  0.08979242  0.26492220     0.06200
H211        H  0.41899015  0.15924571  0.26399944     0.05200
H212        H  0.42698537  0.14518749  0.28891330    -0.00500
H213        H  0.44313016  0.12757992  0.26686698     0.00900
H214        H  0.03581768  0.22622890  0.29971220     0.04600
H215        H  0.03593379  0.23995886  0.27458757     0.06500
H216        H  0.05554032  0.20680381  0.27994366     0.07400
C217        C  0.49274073  0.16270925  0.45389272    -0.22200
C218        C  0.01827336  0.14496494  0.45076123     0.09800
C219        C  0.04337331  0.15012734  0.46218437     0.10200
C220        C  0.04296804  0.17366541  0.47572653    -0.17100
C221        C  0.51790308  0.19214355  0.47822126    -0.27600
C222        C  0.49224088  0.18593234  0.46767459     0.18500
C223        C  0.01844245  0.12228905  0.43480856     0.12500
C224        C  0.07062744  0.13101665  0.45986951    -0.11900
H225        H  0.06254571  0.17848950  0.48385551     0.12700
C226        C  0.46403926  0.20333634  0.47059571    -0.22700
H227        H  0.47334336  0.15841457  0.44533969     0.08400
C228        C  0.50683751  0.09543555  0.43810739     0.04700
C229        C  0.50809108  0.07458325  0.42257150    -0.20000
C230        C  0.02130982  0.07958949  0.40389017    -0.12300
C231        C  0.03196524  0.10737424  0.40040497     0.13400
C232        C  0.03022487  0.12832835  0.41591899    -0.22700
C233        C  0.49413857  0.08816673  0.45827422    -0.05800
H234        H  0.49975256  0.05355784  0.42543774     0.15000
C235        C  0.04493379  0.11547680  0.38047419    -0.15900
H236        H  0.03849512  0.14951616  0.41344636     0.09300
H237        H  0.44722496  0.18863167  0.47531977     0.07100
H238        H  0.45718089  0.21391842  0.45609137     0.08700
H239        H  0.46532634  0.22033140  0.48242489     0.07400
H240        H  0.07843153  0.13204480  0.44404909     0.02300
H241        H  0.06624109  0.10822873  0.46354624     0.02700
H242        H  0.08812227  0.13783756  0.47014722     0.06200
H243        H  0.48667234  0.06572522  0.45849197     0.05200
H244        H  0.47532992  0.10340964  0.46154032    -0.00500
H245        H  0.01102505  0.08964160  0.47052264     0.00900
H246        H  0.05030554  0.13862044  0.38020382     0.04600
H247        H  0.02931908  0.11210776  0.36792301     0.06500
H248        H  0.06531045  0.10220899  0.37786588     0.07400
C249        C  0.03608077  0.32501692  0.44769971    -0.22200
C250        C  0.51285590  0.34538731  0.44944677     0.09800
C251        C  0.49343928  0.34330302  0.46565555     0.10200
C252        C  0.49728344  0.32002084  0.47934556    -0.17100
C253        C  0.52014340  0.29892520  0.47709346    -0.27600
C254        C  0.04006671  0.30173729  0.46120602     0.18500
C255        C  0.50916526  0.36821147  0.43373046     0.12500
C256        C  0.46866038  0.36551023  0.46835016    -0.11900
H257        H  0.48185542  0.31770389  0.49138865     0.12700
C258        C  0.06571703  0.28042157  0.45816905    -0.22700
H259        H  0.05101153  0.32712062  0.43530874     0.08400
C260        C  0.02588530  0.39250345  0.43418470     0.04700
C261        C  0.02363738  0.41230111  0.41810668    -0.20000
C262        C  0.50457302  0.40872308  0.40164338    -0.12300
C263        C  0.48733430  0.38442775  0.40142163     0.13400
C264        C  0.49007322  0.36428153  0.41742136    -0.22700
C265        C  0.04605537  0.39777315  0.45170823    -0.05800
H266        H  0.03642380  0.43119962  0.41866924     0.15000
C267        C  0.46671079  0.37921396  0.38417343    -0.15900
H268        H  0.47741042  0.34526567  0.41719203     0.09300
H269        H  0.08007762  0.28761447  0.44601751     0.07100
H270        H  0.05858275  0.25884838  0.45361024     0.08300
H271        H  0.07883515  0.27814559  0.47226013     0.07400
H272        H  0.45421676  0.36559745  0.45482145     0.02300
H273        H  0.47711291  0.38738297  0.47028216     0.02700
H274        H  0.45565838  0.36084707  0.48188767     0.06200
H275        H  0.05727620  0.41820157  0.44980729     0.05200
H276        H  0.06274199  0.37958876  0.45295296    -0.00500
H277        H  0.03362823  0.39943035  0.46601270     0.00900
H278        H  0.47854793  0.37854330  0.36961278     0.04600
H279        H  0.44928591  0.39674068  0.38363610     0.06500
H280        H  0.45630943  0.35829296  0.38589981     0.07400
C281        C  0.17830342  0.46950647  0.45745844    -0.22200
C282        C  0.16899272  0.99616831  0.44711529     0.09800
C283        C  0.18369352  0.02199783  0.44840959     0.10200
C284        C  0.20646064  0.02381009  0.46238981    -0.17100
C285        C  0.21312630  0.49791112  0.47518754    -0.27600
C286        C  0.20094633  0.47095217  0.47161497     0.18500
C287        C  0.14261707  0.99466234  0.43444586     0.12500
C288        C  0.17498186  0.04782539  0.43530920    -0.11900
H289        H  0.21795988  0.04357795  0.46331493     0.12700
C290        C  0.21166475  0.44329646  0.48203591    -0.22700
H291        H  0.16829021  0.44911243  0.45501173     0.08400
C292        C  0.14317167  0.98564477  0.41396620     0.04700
C293        C  0.11712512  0.98598901  0.40273586    -0.20000
C294        C  0.09064709  0.99460659  0.41176397    -0.12300
C295        C  0.08961806  0.50118667  0.43267883     0.13400
C296        C  0.11568695  0.50064913  0.44343774    -0.22700
C297        C  0.17112751  0.97548329  0.40411595    -0.05800
H298        H  0.11737803  0.97908621  0.38701264     0.15000
C299        C  0.06257693  0.51181527  0.44368027    -0.15900
H300        H  0.11587391  0.50698602  0.45929363     0.09300
H301        H  0.21865904  0.42688638  0.47047101     0.07100
H302        H  0.19393094  0.43475488  0.49103891     0.08300
H303        H  0.23028863  0.44624067  0.49233218     0.07400
H304        H  0.15223343  0.05525254  0.43840506     0.02300
H305        H  0.17700560  0.04182076  0.41906385     0.02700
H306        H  0.18876928  0.06629621  0.43827616     0.06200
H307        H  0.16775435  0.96903515  0.38806405     0.05200
H308        H  0.18093975  0.95641168  0.41243620    -0.00500
H309        H  0.18640337  0.99311185  0.40442796     0.00900
H310        H  0.06736669  0.51957066  0.45924760     0.04600
H311        H  0.04769476  0.49399820  0.44521840     0.06500
H312        H  0.05178822  0.53029007  0.43531041     0.07400
C313        C  0.42266371  0.00210202  0.45025486    -0.22200
C314        C  0.39313988  0.51164984  0.44341644     0.09800
C315        C  0.38801364  0.51831350  0.42281894     0.10200
C316        C  0.41088069  0.51526117  0.40919499    -0.17100
C317        C  0.43873272  0.50509111  0.41552121    -0.27600
C318        C  0.44546075  0.99826008  0.43646596     0.18500
C319        C  0.36883338  0.51021607  0.45757820     0.12500
C320        C  0.35814054  0.52733100  0.41499431    -0.11900
H321        H  0.40650693  0.51965959  0.39328766     0.12700
C322        C  0.47506116  0.98883543  0.44459376    -0.22700
H323        H  0.42647850  0.99785598  0.46624835     0.08400
C324        C  0.35826824  0.48322350  0.46295856     0.04700
C325        C  0.33287811  0.48277280  0.47421194    -0.20000
C326        C  0.31782369  0.50862806  0.47996464    -0.12300
C327        C  0.33174177  0.03706652  0.47558539     0.13400
C328        C  0.35740471  0.03624378  0.46454094    -0.22700
C329        C  0.37311195  0.45494833  0.45617625    -0.05800
H330        H  0.32427863  0.46219212  0.47811735     0.15000
C331        C  0.31781142  0.06633235  0.48106908    -0.15900
H332        H  0.36658003  0.05639268  0.46023895     0.09300
H333        H  0.48181896  0.96693516  0.43871621     0.07100
H334        H  0.47540102  0.98751548  0.46140960     0.08300
H335        H  0.49090039  0.00471339  0.44012288     0.07400
H336        H  0.35030808  0.54798894  0.42227242     0.02300
H337        H  0.34305375  0.51021036  0.41840944     0.02700
H338        H  0.35785752  0.53079945  0.39833188     0.06200
H339        H  0.36142986  0.43596813  0.46126465     0.05200
H340        H  0.39533795  0.45277309  0.46261562    -0.00500
H341        H  0.37417275  0.45429684  0.43936725     0.00900
H342        H  0.33284643  0.07824370  0.49079020     0.04600
H343        H  0.29725056  0.06486620  0.48932977     0.06500
H344        H  0.31307230  0.07904897  0.46703532     0.07400
C345        C  0.12136752  0.97196305  0.56023100    -0.22200
C346        C  0.14185451  0.99259281  0.56357482     0.09800
C347        C  0.13849446  0.50740752  0.58066191     0.10200
C348        C  0.11436715  0.50648130  0.59334048    -0.17100
C349        C  0.09408089  0.98995112  0.58949955    -0.27600
C350        C  0.09752017  0.97026269  0.57300219     0.18500
C351        C  0.16560648  0.99457762  0.54888194     0.12500
C352        C  0.16295635  0.52586536  0.58664016    -0.11900
H353        H  0.11315576  0.51994555  0.60683723     0.12700
C354        C  0.07647211  0.94714002  0.56884584    -0.22700
H355        H  0.12378787  0.95751485  0.54728862     0.08400
C356        C  0.18425752  0.46919304  0.54553406     0.04700
C357        C  0.20719320  0.47213138  0.53212815    -0.20000
C358        C  0.20989961  0.49781352  0.52112401    -0.12300
C359        C  0.18768214  0.02183539  0.52196067     0.13400
C360        C  0.16465974  0.01778712  0.53514081    -0.22700
C361        C  0.18292516  0.44167618  0.55765407    -0.05800
H362        H  0.22371038  0.45462679  0.53069241     0.15000
C363        C  0.18642145  0.04910855  0.50940380    -0.15900
H364        H  0.14635678  0.03354275  0.53532348     0.09300
H365        H  0.07373913  0.93407758  0.58273968     0.07100
H366        H  0.08421186  0.93207132  0.55663390     0.08300
H367        H  0.05524768  0.95707964  0.56381999     0.07400
H368        H  0.16538404  0.54309551  0.57518874     0.02300
H369        H  0.18338052  0.51209951  0.58773376     0.02700
H370        H  0.15914964  0.53657244  0.60156043     0.06200
H371        H  0.20154241  0.42613275  0.55444780     0.05200
H372        H  0.16286391  0.43078166  0.55384243    -0.00500
H373        H  0.18323995  0.44685100  0.57410362     0.00900
H374        H  0.16811241  0.04873492  0.49843456     0.04600
H375        H  0.20654448  0.05196856  0.50094909     0.06500
H376        H  0.18300285  0.06830447  0.51947488     0.07400
C377        C  0.41796392  0.51244494  0.55486640    -0.22200
C378        C  0.38987385  0.51227305  0.56244472     0.09800
C379        C  0.38726031  0.01539557  0.58396807     0.10200
C380        C  0.41129422  0.01292667  0.59695435    -0.17100
C381        C  0.43766888  0.50767211  0.58911828    -0.27600
C382        C  0.44207167  0.51010727  0.56795634     0.18500
C383        C  0.36531981  0.51139173  0.54817294     0.12500
C384        C  0.35732879  0.01479668  0.59265193    -0.11900
H385        H  0.40782717  0.01033723  0.61306094     0.12700
C386        C  0.47186357  0.51046684  0.55903070    -0.22700
H387        H  0.42098022  0.51366892  0.53861704     0.08400
C388        C  0.35088601  0.04215616  0.54250581     0.04700
C389        C  0.32579041  0.03973146  0.53070549    -0.20000
C390        C  0.31538852  0.50734044  0.52426056    -0.12300
C391        C  0.33144273  0.48179603  0.53029738     0.13400
C392        C  0.35628544  0.48418138  0.54223943    -0.22700
C393        C  0.36031143  0.07170310  0.54844540    -0.05800
H394        H  0.31312042  0.05913307  0.52611100     0.15000
C395        C  0.32287301  0.45179963  0.52459171    -0.15900
H396        H  0.36840939  0.46466958  0.54731844     0.09300
H397        H  0.47095511  0.51455626  0.54244032     0.07100
H398        H  0.48386356  0.48920625  0.56139042     0.08300
H399        H  0.48383879  0.52798087  0.56623029     0.07400
H400        H  0.34632683  0.99590111  0.58647577     0.02300
H401        H  0.34450652  0.03506254  0.58860497     0.02700
H402        H  0.35788236  0.01297039  0.60944280     0.06200
H403        H  0.34543576  0.08932819  0.54224915     0.05200
H404        H  0.38226675  0.07464935  0.54249715    -0.00500
H405        H  0.36078720  0.07382489  0.56520813     0.00900
H406        H  0.34055866  0.44049351  0.51586204     0.04600
H407        H  0.30290680  0.45195670  0.51519760     0.06500
H408        H  0.31917525  0.43922057  0.53856038     0.07400
C409        C  0.05413653  0.15738265  0.54489346    -0.22200
C410        C  0.02822331  0.14562880  0.55050028     0.09800
C411        C  0.50154274  0.15709597  0.54212481     0.10200
C412        C  0.50172440  0.18003614  0.52823177    -0.17100
C413        C  0.52763882  0.19224771  0.52304086    -0.27600
C414        C  0.05423764  0.18061599  0.53129071     0.18500
C415        C  0.02925093  0.12276881  0.56612368     0.12500
C416        C  0.47320439  0.14559902  0.54835964    -0.11900
H417        H  0.48149525  0.18932354  0.52202874     0.12700
C418        C  0.08286333  0.19260700  0.52628813    -0.22700
H419        H  0.07435468  0.14874372  0.55151491     0.08400
C420        C  0.53067033  0.09336357  0.56094160     0.04700
C421        C  0.53189522  0.07256173  0.57639809    -0.20000
C422        C  0.03222540  0.08053420  0.59685799    -0.12300
C423        C  0.03108331  0.11028417  0.60208120     0.13400
C424        C  0.02929446  0.13110586  0.58657941    -0.22700
C425        C  0.53184107  0.08372072  0.53909855    -0.05800
H426        H  0.53356745  0.04970665  0.57245669     0.15000
C427        C  0.03147099  0.12017694  0.62383894    -0.15900
H428        H  0.02820598  0.15401672  0.59037533     0.09300
H429        H  0.09741183  0.17507839  0.51977567     0.07100
H430        H  0.09295134  0.20087304  0.54033576     0.08300
H431        H  0.08090950  0.21054618  0.51512347     0.07400
H432        H  0.47029655  0.14857557  0.56493966     0.02300
H433        H  0.47288153  0.12215730  0.54465529     0.02700
H434        H  0.45460336  0.15707968  0.54046568     0.06200
H435        H  0.53342997  0.05967876  0.53771953     0.05200
H436        H  0.55102707  0.09226975  0.53174517    -0.00500
H437        H  0.51206257  0.09197177  0.53086986     0.00900
H438        H  0.05261722  0.11343113  0.63086202     0.04600
H439        H  0.01377276  0.11058573  0.63229725     0.06500
H440        H  0.02859301  0.14417942  0.62512524     0.07400
C441        C  0.53664451  0.34425468  0.53854812    -0.22200
C442        C  0.51518613  0.34383390  0.55343112     0.09800
C443        C  0.49625857  0.32094651  0.55344222     0.10200
C444        C  0.49908992  0.29932745  0.53854863    -0.17100
C445        C  0.52133189  0.29882768  0.52419670    -0.27600
C446        C  0.54070244  0.32145960  0.52443894     0.18500
C447        C  0.51282103  0.36717432  0.56905851     0.12500
C448        C  0.47387714  0.31839191  0.56970330    -0.11900
H449        H  0.48443282  0.28185031  0.53858458     0.12700
C450        C  0.06687254  0.32109590  0.51104419    -0.22700
H451        H  0.05137630  0.36158182  0.53845342     0.08400
C452        C  0.03446177  0.37034823  0.58411619     0.04700
C453        C  0.03019043  0.39205568  0.59898928    -0.20000
C454        C  0.50452499  0.41012347  0.59961676    -0.12300
C455        C  0.48276861  0.40628722  0.58466488     0.13400
C456        C  0.48758902  0.38536283  0.56942489    -0.22700
C457        C  0.06156930  0.35067745  0.58484153    -0.05800
H458        H  0.04691141  0.39497910  0.61029206     0.15000
C459        C  0.45467920  0.42450749  0.58403480    -0.15900
H460        H  0.47138049  0.38296409  0.55767132     0.09300
H461        H  0.07001868  0.30074808  0.50231448     0.07100
H462        H  0.56443858  0.34006957  0.50038304     0.08300
H463        H  0.08659983  0.32310360  0.52051811     0.07400
H464        H  0.45738403  0.33673832  0.56877092     0.02300
H465        H  0.98460245  0.31828090  0.58488938     0.02700
H466        H  0.46239489  0.29802886  0.56816050     0.06200
H467        H  0.07538401  0.35546641  0.59815118     0.05200
H468        H  0.07450216  0.35355705  0.57101754    -0.00500
H469        H  0.05581455  0.32771232  0.58590230     0.00900
H470        H  0.44052128  0.41829931  0.57124524     0.04600
H471        H  0.45901274  0.44759941  0.58192688     0.06500
H472        H  0.44252053  0.42164076  0.59822750     0.07400
C473        C  0.03877994  0.25067395  0.20385695    -0.22200
C474        C  0.06179780  0.23069161  0.20813120     0.09800
C475        C  0.05920262  0.21078224  0.22395685     0.10200
C476        C  0.03387531  0.21176904  0.23544657    -0.17100
C477        C  0.01175629  0.23430779  0.23340621    -0.27600
C478        C  0.01377175  0.25278362  0.21592047     0.18500
C479        C  0.08948082  0.23299779  0.19725797     0.12500
C480        C  0.08383872  0.18936142  0.22959186    -0.11900
H481        H  0.03227702  0.19464385  0.24617684     0.12700
C482        C  0.99093749  0.27603315  0.20988823    -0.22700
H483        H  0.04094386  0.26551530  0.19133494     0.08400
C484        C  0.09803952  0.21426559  0.18121450     0.04700
C485        C  0.12559249  0.21624512  0.17273871    -0.20000
C486        C  0.14404667  0.23796692  0.17881340    -0.12300
C487        C  0.13482928  0.25724622  0.19466167     0.13400
C488        C  0.10786035  0.25424619  0.20370988    -0.22700
C489        C  0.07779011  0.19291009  0.17257853    -0.05800
H490        H  0.13254219  0.20084651  0.16111271     0.15000
C491        C  0.15344924  0.28043322  0.20281099    -0.15900
H492        H  0.10101614  0.26852381  0.21606579     0.09300
H493        H  0.97169462  0.26600929  0.20351186     0.07100
H494        H  0.99856110  0.29037783  0.19781093     0.08300
H495        H  0.98494640  0.29026863  0.22290313     0.07400
H496        H  0.10323709  0.20124236  0.23364239     0.02300
H497        H  0.08913624  0.17452142  0.21676660     0.02700
H498        H  0.07857302  0.17586944  0.24282227     0.06200
H499        H  0.08770225  0.18032804  0.15978417     0.05200
H500        H  0.05786583  0.20481074  0.16682541    -0.00500
H501        H  0.07175525  0.17731912  0.18431722     0.00900
H502        H  0.14330596  0.29218581  0.21588347     0.04600
H503        H  0.15671270  0.29675864  0.19086764     0.06500
H504        H  0.17460206  0.27049464  0.20807609     0.07400
C505        C  0.42422882  0.22001902  0.21117838    -0.22200
C506        C  0.40467030  0.24392039  0.21333830     0.09800
C507        C  0.41158390  0.26658471  0.22642563     0.10200
C508        C  0.43768462  0.26453825  0.23749215    -0.17100
C509        C  0.45754620  0.23980042  0.23648969    -0.27600
C510        C  0.45023324  0.21736071  0.22236816     0.18500
C511        C  0.37654764  0.24425763  0.20226215     0.12500
C512        C  0.39152067  0.29335751  0.22841988    -0.11900
H513        H  0.44250005  0.28334527  0.24630401     0.12700
C514        C  0.46821291  0.18948615  0.21868526    -0.22700
H515        H  0.41874415  0.20273077  0.20090609     0.08400
C516        C  0.37402824  0.25142135  0.18152252     0.04700
C517        C  0.34676662  0.25168676  0.17193720    -0.20000
C518        C  0.32182300  0.24482873  0.18255187    -0.12300
C519        C  0.32484739  0.23644651  0.20316911     0.13400
C520        C  0.35199844  0.23674845  0.21278356    -0.22700
C521        C  0.39996779  0.25945810  0.16965741    -0.05800
H522        H  0.34483399  0.25816040  0.15617499     0.15000
C523        C  0.30044649  0.22576060  0.21533094    -0.15900
H524        H  0.35415873  0.23059298  0.22860954     0.09300
H525        H  0.47615982  0.18911087  0.20285556     0.07100
H526        H  0.45464094  0.17070240  0.22087852     0.08300
H527        H  0.48680165  0.18584498  0.22897128     0.07400
H528        H  0.37031523  0.28734514  0.23426027     0.02300
H529        H  0.38828277  0.30385251  0.21337129     0.02700
H530        H  0.40024134  0.30948503  0.23902885     0.06200
H531        H  0.39418612  0.26495078  0.15367927     0.05200
H532        H  0.41641732  0.24097848  0.16954224    -0.00500
H533        H  0.40949279  0.27860363  0.17673947     0.00900
H534        H  0.30712100  0.20428511  0.22198800     0.04600
H535        H  0.28109611  0.22257934  0.20595454     0.06500
H536        H  0.29486322  0.24130354  0.22776026     0.07400
C537        C  0.23941329  0.16129055  0.05212986    -0.22200
C538        C  0.25354373  0.13518972  0.05846800     0.09800
C539        C  0.26538227  0.13282130  0.07816410     0.10200
C540        C  0.26171666  0.15635764  0.09146837    -0.17100
C541        C  0.24598903  0.18210953  0.08571892    -0.27600
C542        C  0.23522256  0.18483085  0.06551247     0.18500
C543        C  0.25297367  0.10957128  0.04510105     0.12500
C544        C  0.28081276  0.10503204  0.08543745    -0.11900
H545        H  0.27045287  0.15415039  0.10672386     0.12700
C546        C  0.21841998  0.21173828  0.05797099    -0.22700
H547        H  0.23052751  0.16271550  0.03686954     0.08400
C548        C  0.22774087  0.09405860  0.04325767     0.04700
C549        C  0.22842938  0.06875772  0.03154425    -0.20000
C550        C  0.25377208  0.05856532  0.02181588    -0.12300
C551        C  0.27919305  0.07381465  0.02390267     0.13400
C552        C  0.27834320  0.09949026  0.03532880    -0.22700
C553        C  0.20027891  0.10384295  0.05397881    -0.05800
H554        H  0.20907312  0.05682849  0.02988190     0.15000
C555        C  0.30759789  0.06318699  0.01486996    -0.15900
H556        H  0.29774818  0.11131465  0.03708421     0.09300
H557        H  0.19844585  0.21568191  0.06696919     0.07100
H558        H  0.21175932  0.20964079  0.04183218     0.08300
H559        H  0.23194440  0.23074749  0.05911821     0.07400
H560        H  0.30013088  0.09986373  0.07599951     0.02300
H561        H  0.26608382  0.08694952  0.08434946     0.02700
H562        H  0.28814702  0.10669697  0.10146092     0.06200
H563        H  0.18286641  0.08870889  0.05126767     0.05200
H564        H  0.19241201  0.12560965  0.04843952    -0.00500
H565        H  0.20438527  0.10490616  0.07057270     0.00900
H566        H  0.31459578  0.07931987  0.00375740     0.04600
H567        H  0.30647692  0.04194559  0.00713245     0.06500
H568        H  0.32419575  0.06051593  0.02708382     0.07400
C569        C  0.23003767  0.38601493  0.08249675    -0.22200
C570        C  0.23300853  0.38227498  0.06147883     0.09800
C571        C  0.23900899  0.35436146  0.05341727     0.10200
C572        C  0.24113381  0.33059540  0.06652244    -0.17100
C573        C  0.23800467  0.33391476  0.08766527    -0.27600
C574        C  0.23264608  0.36213534  0.09578113     0.18500
C575        C  0.23179483  0.40794639  0.04813046     0.12500
C576        C  0.24383658  0.34969928  0.03101303    -0.11900
H577        H  0.24577820  0.30919754  0.06010374     0.12700
C578        C  0.22919709  0.36726570  0.11819507    -0.22700
H579        H  0.22590450  0.40774264  0.08849506     0.08400
C580        C  0.20626204  0.41745847  0.03767994     0.04700
C581        C  0.20687762  0.44113437  0.02438239    -0.20000
C582        C  0.23244445  0.45533072  0.02145759    -0.12300
C583        C  0.25811130  0.44533522  0.03169047     0.13400
C584        C  0.25736217  0.42187349  0.04500860    -0.22700
C585        C  0.17838611  0.40296376  0.04086184    -0.05800
H586        H  0.18727309  0.44903650  0.01659667     0.15000
C587        C  0.28675697  0.45856403  0.02868892    -0.15900
H588        H  0.27699843  0.41406984  0.05281718     0.09300
H589        H  0.22413299  0.39055301  0.12172514     0.07100
H590        H  0.24954249  0.36042855  0.12632382     0.08300
H591        H  0.21123139  0.35475374  0.12385383     0.07400
H592        H  0.26245255  0.36191147  0.02606030     0.02300
H593        H  0.22431794  0.35738159  0.02226536     0.02700
H594        H  0.24857637  0.32641858  0.02730061     0.06200
H595        H  0.16043859  0.41328434  0.03163740     0.05200
H596        H  0.17229623  0.40457430  0.05707968    -0.00500
H597        H  0.18093493  0.37972217  0.03650638     0.00900
H598        H  0.29418946  0.46780482  0.04326347     0.04600
H599        H  0.28590225  0.47594436  0.01710295     0.06500
H600        H  0.30299069  0.44148015  0.02361762     0.07400
C601        C  0.27885405  0.09107743  0.95330589    -0.22200
C602        C  0.25630805  0.11252417  0.95470126     0.09800
C603        C  0.23274635  0.10841110  0.96752713     0.10200
C604        C  0.23213555  0.08263512  0.97861076    -0.17100
C605        C  0.25445541  0.06090817  0.97701116    -0.27600
C606        C  0.27827162  0.06522329  0.96433370     0.18500
C607        C  0.25583633  0.13731435  0.94063780     0.12500
C608        C  0.20790248  0.13085939  0.96904342    -0.11900
H609        H  0.21378321  0.07902422  0.98813824     0.12700
C610        C  0.30331652  0.04312236  0.96200813    -0.22700
H611        H  0.29666549  0.09426453  0.94317771     0.08400
C612        C  0.26772529  0.16385229  0.94574174     0.04700
C613        C  0.26459201  0.18722117  0.93207996    -0.20000
C614        C  0.25061527  0.18401445  0.91330938    -0.12300
C615        C  0.23953039  0.15693838  0.90806327     0.13400
C616        C  0.24220402  0.13403855  0.92188069    -0.22700
C617        C  0.28366568  0.16731612  0.96550829    -0.05800
H618        H  0.27323559  0.20787109  0.93594520     0.15000
C619        C  0.22380038  0.15216638  0.88827917    -0.15900
H620        H  0.23323531  0.11345642  0.91819385     0.09300
H621        H  0.32370920  0.05314775  0.96629662     0.07100
H622        H  0.30469504  0.03590491  0.94595684     0.08300
H623        H  0.30155685  0.02367899  0.97162727     0.07400
H624        H  0.19740005  0.13411334  0.95395283     0.02300
H625        H  0.21592759  0.15176490  0.97440771     0.02700
H626        H  0.19129216  0.12419612  0.97983382     0.06200
H627        H  0.29186543  0.18936196  0.96707784     0.05200
H628        H  0.30242089  0.15122162  0.96632403    -0.00500
H629        H  0.26906350  0.16370023  0.97837657     0.00900
H630        H  0.23849114  0.15468745  0.87532277     0.04600
H631        H  0.20485840  0.16786225  0.88689346     0.06500
H632        H  0.21572241  0.13000852  0.88725127     0.07400
C633        C  0.24438433  0.39403937  0.91448355    -0.22200
C634        C  0.22533788  0.38957218  0.93048279     0.09800
C635        C  0.20958763  0.36450626  0.93085060     0.10200
C636        C  0.21433318  0.34370616  0.91566319    -0.17100
C637        C  0.23459654  0.34722628  0.90012392    -0.27600
C638        C  0.24923903  0.37303714  0.89922628     0.18500
C639        C  0.22374953  0.41060347  0.94733149     0.12500
C640        C  0.18857031  0.35924563  0.94758211    -0.11900
H641        H  0.20280077  0.32396251  0.91642155     0.12700
C642        C  0.26938048  0.37866855  0.88213601    -0.22700
H643        H  0.25600061  0.41375303  0.91425383     0.08400
C644        C  0.24587236  0.41067654  0.96215433     0.04700
C645        C  0.24586480  0.43343895  0.97622394    -0.20000
C646        C  0.22369487  0.45547261  0.97611789    -0.12300
C647        C  0.19996085  0.45358991  0.96258477     0.13400
C648        C  0.20052742  0.43135993  0.94808330    -0.22700
C649        C  0.26966498  0.38697653  0.96287216    -0.05800
H650        H  0.26392607  0.43478872  0.98667049     0.15000
C651        C  0.17398871  0.47485433  0.96290045    -0.15900
H652        H  0.18309557  0.43055718  0.93704344     0.09300
H653        H  0.27813580  0.40050021  0.88340805     0.07100
H654        H  0.25760428  0.37752065  0.86744550     0.08300
H655        H  0.28788119  0.36229037  0.88228760     0.07400
H656        H  0.17110635  0.37677138  0.94763515     0.02300
H657        H  0.19999887  0.35892277  0.96246342     0.02700
H658        H  0.17838352  0.33819215  0.94564342     0.06200
H659        H  0.28494832  0.39011543  0.97565947     0.05200
H660        H  0.28209440  0.38667283  0.94857578    -0.00500
H661        H  0.26016810  0.36563654  0.96488238     0.00900
H662        H  0.17238241  0.48690926  0.94834749     0.04600
H663        H  0.17476984  0.49072628  0.97551543     0.06500
H664        H  0.15412585  0.46285820  0.96483410     0.07400
C665        C  0.47640281  0.17797789  0.71225243    -0.22200
C666        C  0.99701281  0.15656064  0.71896403     0.09800
C667        C  0.01545793  0.16310140  0.73520133     0.10200
C668        C  0.01307905  0.19072072  0.74427066    -0.17100
C669        C  0.99128800  0.21232030  0.73879352    -0.27600
C670        C  0.47323723  0.20556185  0.72158549     0.18500
C671        C  0.00032370  0.12827530  0.70782511     0.12500
C672        C  0.03735561  0.14057729  0.74350043    -0.11900
H673        H  0.02880849  0.19483547  0.75582610     0.12700
C674        C  0.45040950  0.22657761  0.71251977    -0.22700
H675        H  0.46298237  0.17305990  0.69928843     0.08400
C676        C  0.47926879  0.10710164  0.70861022     0.04700
C677        C  0.48398019  0.08080073  0.69779238    -0.20000
C678        C  0.00945665  0.07501246  0.68657220    -0.12300
C679        C  0.03065611  0.09581033  0.68645911     0.13400
C680        C  0.02549726  0.12238596  0.69657195    -0.22700
C681        C  0.45238039  0.11193333  0.72108888    -0.05800
H682        H  0.46787664  0.06470868  0.69801923     0.15000
C683        C  0.05926550  0.08962070  0.67626766    -0.15900
H684        H  0.04151931  0.13855256  0.69603386     0.09300
H685        H  0.43720852  0.21611629  0.70074462     0.07100
H686        H  0.46075442  0.24448939  0.70479959     0.08300
H687        H  0.43510470  0.23520769  0.72411047     0.07400
H688        H  0.05377642  0.13448776  0.73190665     0.02300
H689        H  0.02625590  0.12097441  0.74807895     0.02700
H690        H  0.04893762  0.14862384  0.75702302     0.06200
H691        H  0.43882752  0.09286280  0.72049883     0.05200
H692        H  0.43916957  0.13104427  0.71532371    -0.00500
H693        H  0.45843326  0.11575544  0.73716655     0.00900
H694        H  0.07332951  0.10823534  0.67749942     0.04600
H695        H  0.05579042  0.08502912  0.66001546     0.06500
H696        H  0.07078846  0.07050024  0.68349232     0.07400
C697        C  0.47621540  0.34999978  0.67980660    -0.22200
C698        C  0.49004803  0.34521747  0.69864774     0.09800
C699        C  0.00628506  0.36735313  0.70706698     0.10200
C700        C  0.00822119  0.39361519  0.69651878    -0.17100
C701        C  0.49412671  0.39879474  0.67776792    -0.27600
C702        C  0.47814006  0.37634884  0.66918782     0.18500
C703        C  0.48717408  0.31724670  0.70968637     0.12500
C704        C  0.02087080  0.36359620  0.72750156    -0.11900
H705        H  0.02023886  0.41067162  0.70331440     0.12700
C706        C  0.46369238  0.37871819  0.64865067    -0.22700
H707        H  0.46397065  0.33292867  0.67325121     0.08400
C708        C  0.46244689  0.31197253  0.72091374     0.04700
C709        C  0.46224136  0.28710671  0.73321390    -0.20000
C710        C  0.48682960  0.26735024  0.73584763    -0.12300
C711        C  0.01088584  0.27176999  0.72265112     0.13400
C712        C  0.01055318  0.29646909  0.71006126    -0.22700
C713        C  0.43628538  0.33297829  0.72022356    -0.05800
H714        H  0.44217212  0.28350438  0.74058570     0.15000
C715        C  0.03816185  0.25226476  0.72163674    -0.15900
H716        H  0.02928559  0.30022073  0.70091614     0.09300
H717        H  0.43999926  0.37738228  0.65031841     0.07100
H718        H  0.47203859  0.36053086  0.63887058     0.08300
H719        H  0.46774270  0.39902391  0.64065545     0.07400
H720        H  0.03724455  0.34506724  0.72703527     0.02300
H721        H  0.00454120  0.35934632  0.73916761     0.02700
H722        H  0.03201078  0.38325880  0.73213489     0.06200
H723        H  0.41875323  0.32600133  0.73013009     0.05200
H724        H  0.42767020  0.33461531  0.70447940    -0.00500
H725        H  0.44232310  0.35474279  0.72541032     0.00900
H726        H  0.03980708  0.24204022  0.70640329     0.04600
H727        H  0.03979314  0.23508474  0.73311515     0.06500
H728        H  0.05723146  0.26538224  0.72414172     0.07400
C729        C  0.03972971  0.22528383  0.79863543    -0.22200
C730        C  0.06085301  0.24525543  0.79563888     0.09800
C731        C  0.05616597  0.26623415  0.78035460     0.10200
C732        C  0.03129122  0.26600564  0.76796182    -0.17100
C733        C  0.01110154  0.24395494  0.76893774    -0.27600
C734        C  0.01468954  0.22473747  0.78614240     0.18500
C735        C  0.08865811  0.24270934  0.80756219     0.12500
C736        C  0.07810049  0.28842306  0.77646968    -0.11900
H737        H  0.02834120  0.28353606  0.75732271     0.12700
C738        C  0.99276022  0.20331838  0.79199065    -0.22700
H739        H  0.04305190  0.20976731  0.81085963     0.08400
C740        C  0.09410553  0.26033580  0.82459716     0.04700
C741        C  0.12208672  0.25938363  0.83347301    -0.20000
C742        C  0.14462373  0.24030711  0.82631700    -0.12300
C743        C  0.13838614  0.22140260  0.80995471     0.13400
C744        C  0.11073154  0.22309420  0.80081550    -0.22700
C745        C  0.07027790  0.27973734  0.83360393    -0.05800
H746        H  0.12639228  0.27358152  0.84613165     0.15000
C747        C  0.16035289  0.19990466  0.80089014    -0.15900
H748        H  0.10653336  0.20934355  0.78787754     0.09300
H749        H  0.97271143  0.21509979  0.79729035     0.07100
H750        H  0.00055800  0.18925772  0.80478931     0.08300
H751        H  0.98786445  0.18861667  0.77932615     0.07400
H752        H  0.09921188  0.27722654  0.77265664     0.02300
H753        H  0.08085745  0.30212317  0.79009775     0.02700
H754        H  0.07152638  0.30299843  0.76364863     0.06200
H755        H  0.07796308  0.29176920  0.84703210     0.05200
H756        H  0.05246469  0.26636424  0.83849585    -0.00500
H757        H  0.06168455  0.29581315  0.82228523     0.00900
H758        H  0.15245250  0.17770501  0.80193366     0.04600
H759        H  0.18161969  0.19959310  0.80844433     0.06500
H760        H  0.16344257  0.20518350  0.78466591     0.07400
C761        C  0.41934156  0.26378764  0.78584186    -0.22200
C762        C  0.40195182  0.24037157  0.78312982     0.09800
C763        C  0.41215970  0.21657986  0.77147353     0.10200
C764        C  0.43917548  0.21717617  0.76212756    -0.17100
C765        C  0.45670552  0.24157493  0.76330839    -0.27600
C766        C  0.44635013  0.26487005  0.77639853     0.18500
C767        C  0.37340362  0.24098145  0.79318752     0.12500
C768        C  0.39460326  0.19024405  0.76911297    -0.11900
H769        H  0.44636996  0.19763965  0.75426918     0.12700
C770        C  0.46206180  0.29198916  0.78072653    -0.22700
H771        H  0.41152616  0.28173377  0.79535959     0.08400
C772        C  0.37093987  0.23232668  0.81349136     0.04700
C773        C  0.34389597  0.23504627  0.82283177    -0.20000
C774        C  0.31900452  0.24691971  0.81258767    -0.12300
C775        C  0.32142641  0.25438396  0.79182750     0.13400
C776        C  0.34861783  0.25120247  0.78242887    -0.22700
C777        C  0.39700583  0.22072151  0.82543687    -0.05800
H778        H  0.34259369  0.22866294  0.83857564     0.15000
C779        C  0.29587261  0.26613321  0.77946957    -0.15900
H780        H  0.35076810  0.25742635  0.76670645     0.09300
H781        H  0.46791693  0.29276524  0.79707540     0.07100
H782        H  0.44767282  0.31139681  0.77700072     0.08300
H783        H  0.48173670  0.29395970  0.77187801     0.07400
H784        H  0.37343549  0.19658888  0.76189961     0.02300
H785        H  0.39087142  0.18063836  0.78420606     0.02700
H786        H  0.40565578  0.17326009  0.75951472     0.06200
H787        H  0.39131884  0.21488101  0.84116793     0.05200
H788        H  0.41330107  0.23738780  0.82629410    -0.00500
H789        H  0.40674043  0.20096639  0.81795013     0.00900
H790        H  0.30171199  0.26974205  0.76341933     0.04600
H791        H  0.28757718  0.28734012  0.78572853     0.06500
H792        H  0.27860979  0.25043404  0.77957959     0.07400
C793        C  0.34154085  0.48186002  0.73619888    -0.22200
C794        C  0.34691820  0.50318392  0.72203691     0.09800
C795        C  0.32692472  0.02232724  0.71596511     0.10200
C796        C  0.29926209  0.02049875  0.72413860    -0.17100
C797        C  0.29067586  0.50008551  0.73937028    -0.27600
C798        C  0.31383067  0.47870575  0.74417905     0.18500
C799        C  0.37555097  0.50197989  0.71201704     0.12500
C800        C  0.33204755  0.04505090  0.70025018    -0.11900
H801        H  0.28252225  0.03637544  0.71922892     0.12700
C802        C  0.31168325  0.45067006  0.75581399    -0.22700
H803        H  0.35908359  0.46620753  0.74016398     0.08400
C804        C  0.40277946  0.01440900  0.72109486     0.04700
C805        C  0.42932755  0.01130948  0.71077579    -0.20000
C806        C  0.42907603  0.49626004  0.69163172    -0.12300
C807        C  0.40354556  0.48620282  0.68248983     0.13400
C808        C  0.37733538  0.48944032  0.69276586    -0.22700
C809        C  0.40069862  0.03154806  0.74051360    -0.05800
H810        H  0.44810287  0.02148895  0.71677068     0.15000
C811        C  0.40265903  0.47106574  0.66216670    -0.15900
H812        H  0.35797351  0.48161463  0.68576830     0.09300
H813        H  0.32515510  0.93286148  0.74774379     0.07100
H814        H  0.28981342  0.44326340  0.75755441     0.08300
H815        H  0.32259682  0.45221084  0.77079994     0.07400
H816        H  0.33585980  0.53522249  0.68534239     0.02300
H817        H  0.34872960  0.05948493  0.70588503     0.02700
H818        H  0.31208031  0.05869779  0.69677495     0.06200
H819        H  0.42171929  0.04034642  0.74478254     0.05200
H820        H  0.39400551  0.01740952  0.75300618    -0.00500
H821        H  0.38445730  0.05005643  0.73871448     0.00900
H822        H  0.39312454  0.44970775  0.66399151     0.04600
H823        H  0.42398076  0.46659363  0.65525638     0.06500
H824        H  0.38892372  0.48442847  0.65143452     0.07400
C825        C  0.20786714  0.48275125  0.70567145    -0.22200
C826        C  0.19145361  0.00641826  0.70401922     0.09800
C827        C  0.19767688  0.03183283  0.71451373     0.10200
C828        C  0.22226071  0.03182956  0.72712839    -0.17100
C829        C  0.23959757  0.00609339  0.73168147    -0.27600
C830        C  0.23212415  0.48183543  0.71874949     0.18500
C831        C  0.16326843  0.00363740  0.69343783     0.12500
C832        C  0.17771085  0.05878151  0.71305673    -0.11900
H833        H  0.22693459  0.05238676  0.73378372     0.12700
C834        C  0.25059336  0.45393148  0.71800735    -0.22700
H835        H  0.20311016  0.46363605  0.69691864     0.08400
C836        C  0.15838830  0.01213879  0.67307858     0.04700
C837        C  0.13046059  0.01094987  0.66458337    -0.20000
C838        C  0.10766000  0.00043321  0.67578838    -0.12300
C839        C  0.10985805  0.49424377  0.69640513     0.13400
C840        C  0.13745309  0.49605435  0.70508678    -0.22700
C841        C  0.18266406  0.02206208  0.66031155    -0.05800
H842        H  0.12644430  0.01798231  0.64908754     0.15000
C843        C  0.08551021  0.48522919  0.70953868    -0.15900
H844        H  0.14098046  0.49062183  0.72093788     0.09300
H845        H  0.25942285  0.45074902  0.70251794     0.07100
H846        H  0.23736874  0.43536110  0.72166909     0.08300
H847        H  0.26877376  0.45333166  0.72855686     0.07400
H848        H  0.15586282  0.05396042  0.71838444     0.02300
H849        H  0.17609807  0.06637994  0.69713064     0.02700
H850        H  0.18544619  0.07677310  0.72250637     0.06200
H851        H  0.17523324  0.02761769  0.64465645     0.05200
H852        H  0.19998986  0.00445460  0.65934611    -0.00500
H853        H  0.19176594  0.04156158  0.66714488     0.00900
H854        H  0.09271858  0.48131133  0.72546026     0.04600
H855        H  0.07703283  0.46479627  0.70368089     0.06500
H856        H  0.06788240  0.50259987  0.70964484     0.07400
C857        C  0.23440841  0.07581115  0.78035739    -0.22200
C858        C  0.25763339  0.09366692  0.77888558     0.09800
C859        C  0.28312935  0.08261395  0.76960746     0.10200
C860        C  0.28462079  0.05426835  0.76177845    -0.17100
C861        C  0.26053680  0.03640537  0.76127208    -0.27600
C862        C  0.23513469  0.04780487  0.77169474     0.18500
C863        C  0.25562209  0.12297095  0.78860532     0.12500
C864        C  0.30892695  0.10087726  0.76763692    -0.11900
H865        H  0.30555119  0.04634321  0.75656723     0.12700
C866        C  0.20754350  0.03226925  0.77367158    -0.22700
H867        H  0.21513397  0.08406882  0.78816868     0.08400
C868        C  0.23774721  0.14634582  0.78088319     0.04700
C869        C  0.23562795  0.17296378  0.79153332    -0.20000
C870        C  0.25085617  0.17678628  0.80984809    -0.12300
C871        C  0.27047768  0.15375087  0.81661876     0.13400
C872        C  0.27203849  0.12721685  0.80613226    -0.22700
C873        C  0.22104292  0.14322746  0.76137682    -0.05800
H874        H  0.22143143  0.19056639  0.78574336     0.15000
C875        C  0.29033304  0.15655786  0.83473816    -0.15900
H876        H  0.28596653  0.10930755  0.81185499     0.09300
H877        H  0.18907670  0.04650230  0.76795698     0.07100
H878        H  0.20388499  0.02731872  0.78987670     0.08300
H879        H  0.20703694  0.01207972  0.76492755     0.07400
H880        H  0.31764027  0.10620960  0.78282023     0.02300
H881        H  0.30244627  0.12128543  0.75947108     0.02700
H882        H  0.32667651  0.08947975  0.75900801     0.06200
H883        H  0.20864535  0.16371692  0.75720670     0.05200
H884        H  0.20548559  0.12600769  0.76291209    -0.00500
H885        H  0.23621076  0.13737043  0.74889343     0.00900
H886        H  0.27777792  0.15756993  0.84896792     0.04600
H887        H  0.30280524  0.17625001  0.83316965     0.06500
H888        H  0.30619502  0.13764431  0.83614057     0.07400
C889        C  0.26793488  0.45508168  0.79834310    -0.22200
C890        C  0.24926123  0.43328504  0.79341769     0.09800
C891        C  0.23086315  0.43734744  0.77644067     0.10200
C892        C  0.23292439  0.46195358  0.76414898    -0.17100
C893        C  0.25460023  0.48219098  0.76699016    -0.27600
C894        C  0.27080037  0.47947757  0.78571104     0.18500
C895        C  0.25018428  0.40579457  0.80555345     0.12500
C896        C  0.20966205  0.41508371  0.77062410    -0.11900
H897        H  0.21724157  0.46463008  0.75215067     0.12700
C898        C  0.29203917  0.50114124  0.79265251    -0.22700
H899        H  0.28105305  0.45248481  0.81197384     0.08400
C900        C  0.27411558  0.38536296  0.80465107     0.04700
C901        C  0.27318421  0.35869680  0.81485948    -0.20000
C902        C  0.24863862  0.35130014  0.82562682    -0.12300
C903        C  0.22486666  0.37205811  0.82690747     0.13400
C904        C  0.22616239  0.39910744  0.81711102    -0.22700
C905        C  0.30028109  0.39106353  0.79222084    -0.05800
H906        H  0.29145242  0.34301083  0.81374759     0.15000
C907        C  0.19821657  0.36614917  0.83875565    -0.15900
H908        H  0.20802225  0.41495327  0.81809079     0.09300
H909        H  0.30424475  0.49364362  0.80642571     0.07100
H910        H  0.28039467  0.52192934  0.79681254     0.08300
H911        H  0.30982850  0.00489969  0.78125273     0.07400
H912        H  0.19331686  0.41342347  0.78266025     0.02300
H913        H  0.22131671  0.39360123  0.76841418     0.02700
H914        H  0.19794313  0.42083452  0.75628708     0.06200
H915        H  0.31658294  0.37243543  0.79262627     0.05200
H916        H  0.31079429  0.41035925  0.79818036    -0.00500
H917        H  0.29370429  0.39483320  0.77617288     0.00900
H918        H  0.18259921  0.38534803  0.83906540     0.04600
H919        H  0.20429018  0.36058650  0.85466076     0.06500
H920        H  0.18700899  0.34801535  0.83169742     0.07400
C921        C  0.07322394  0.28881758  0.04875715    -0.22200
C922        C  0.09151128  0.26383395  0.05133739     0.09800
C923        C  0.08846490  0.23971610  0.03843190     0.10200
C924        C  0.06575944  0.24038011  0.02414627    -0.17100
C925        C  0.04633743  0.26476059  0.02237138    -0.27600
C926        C  0.05083371  0.28970573  0.03430396     0.18500
C927        C  0.11275605  0.26283174  0.06827622     0.12500
C928        C  0.10884382  0.21312859  0.04002238    -0.11900
H929        H  0.06215416  0.22118655  0.01520215     0.12700
C930        C  0.03189688  0.31731286  0.03256673    -0.22700
H931        H  0.07590437  0.30746120  0.05849977     0.08400
C932        C  0.13822291  0.27797037  0.06746789     0.04700
C933        C  0.15815119  0.27522870  0.08355561    -0.20000
C934        C  0.15343783  0.25744553  0.10038326    -0.12300
C935        C  0.12721947  0.24338689  0.10155088     0.13400
C936        C  0.10724521  0.24621741  0.08544745    -0.22700
C937        C  0.14492127  0.29609150  0.04932137    -0.05800
H938        H  0.17820717  0.28603051  0.08248476     0.15000
C939        C  0.11930883  0.22591855  0.11964384    -0.15900
H940        H  0.08725105  0.23520632  0.08620980     0.09300
H941        H  0.04545233  0.33563400  0.02894428     0.07100
H942        H  0.02088493  0.32187610  0.04720236     0.08300
H943        H  0.01517485  0.31633171  0.02050608     0.07400
H944        H  0.10721390  0.20310092  0.05520832     0.02300
H945        H  0.13137451  0.21928612  0.03769099     0.02700
H946        H  0.10385935  0.19656456  0.02845486     0.06200
H947        H  0.16620462  0.30579350  0.05093915     0.05200
H948        H  0.12815397  0.31408575  0.04746150    -0.00500
H949        H  0.14542543  0.28236182  0.03546154     0.00900
H950        H  0.09833467  0.23471794  0.12576674     0.04600
H951        H  0.13548182  0.22690034  0.13195570     0.06500
H952        H  0.11731259  0.20290981  0.11515886     0.07400
C953        C  0.40174442  0.28434114  0.04516942    -0.22200
C954        C  0.39731407  0.25884786  0.05590011     0.09800
C955        C  0.41489732  0.23346816  0.05226096     0.10200
C956        C  0.43681340  0.23418893  0.03788795    -0.17100
C957        C  0.44136307  0.25971122  0.02719860    -0.27600
C958        C  0.42391983  0.28523065  0.03099502     0.18500
C959        C  0.37365629  0.25913737  0.07060325     0.12500
C960        C  0.41071515  0.20586009  0.06371681    -0.11900
H961        H  0.45073350  0.21489763  0.03511066     0.12700
C962        C  0.42864343  0.31380629  0.02089368    -0.22700
H963        H  0.38809998  0.30376432  0.04813869     0.08400
C964        C  0.37715221  0.26936963  0.09055056     0.04700
C965        C  0.35338831  0.27066103  0.10355164    -0.20000
C966        C  0.32624369  0.26188762  0.09702859    -0.12300
C967        C  0.32319798  0.25086076  0.07703307     0.13400
C968        C  0.34702596  0.24970019  0.06412119    -0.22700
C969        C  0.40586945  0.27907421  0.09800368    -0.05800
H970        H  0.35597328  0.27893107  0.11882333     0.15000
C971        C  0.29492261  0.24121694  0.06874805    -0.15900
H972        H  0.34483122  0.24182957  0.04870032     0.09300
H973        H  0.43242373  0.33047691  0.03264560     0.07100
H974        H  0.40915976  0.32081886  0.01184048     0.08300
H975        H  0.44751983  0.31278718  0.01071608     0.07400
H976        H  0.38868971  0.19853948  0.06070791     0.02300
H977        H  0.41342856  0.20971692  0.08023123     0.02700
H978        H  0.42660037  0.18813706  0.05914807     0.06200
H979        H  0.40491773  0.28627691  0.11408061     0.05200
H980        H  0.41247721  0.29751032  0.08868612    -0.00500
H981        H  0.42250373  0.26084181  0.09683096     0.00900
H982        H  0.29659554  0.23421800  0.05265114     0.04600
H983        H  0.27821334  0.25937753  0.06949639     0.06500
H984        H  0.28818075  0.22241131  0.07755139     0.07400
C985        C  0.13723389  0.25314557  0.94011049    -0.22200
C986        C  0.10898065  0.25148533  0.93304864     0.09800
C987        C  0.10350875  0.24571353  0.91238170     0.10200
C988        C  0.12686628  0.24086583  0.89915394    -0.17100
C989        C  0.15530085  0.24227754  0.90624707    -0.27600
C990        C  0.16052657  0.24890442  0.92699864     0.18500
C991        C  0.08574638  0.25370248  0.94807788     0.12500
C992        C  0.07306007  0.24549897  0.90429292    -0.11900
H993        H  0.12292499  0.23734514  0.88312666     0.12700
C994        C  0.19051691  0.25159802  0.93564168    -0.22700
H995        H  0.14099474  0.25760706  0.95604970     0.08400
C996        C  0.07697438  0.22862578  0.95784077     0.04700
C997        C  0.05476081  0.23129371  0.97201602    -0.20000
C998        C  0.04177621  0.25853734  0.97694487    -0.12300
C999        C  0.05130873  0.28383833  0.96772031     0.13400
C1000       C  0.07338502  0.28109484  0.95335407    -0.22700
C1001       C  0.09111379  0.19911205  0.95325237    -0.05800
H1002       H  0.04713173  0.21202014  0.97907150     0.15000
C1003       C  0.03838206  0.31380244  0.97244628    -0.15900
H1004       H  0.08079105  0.30031769  0.94608544     0.09300
H1005       H  0.20287051  0.23037119  0.93444316     0.07100
H1006       H  0.19008674  0.25761370  0.95196536     0.08300
H1007       H  0.20173937  0.26873813  0.92765076     0.07400
H1008       H  0.06166660  0.26698494  0.90702070     0.02300
H1009       H  0.06134371  0.22848649  0.91205364     0.02700
H1010       H  0.07257533  0.24106080  0.88773410     0.06200
H1011       H  0.08163588  0.18180332  0.96226069     0.05200
H1012       H  0.11455098  0.19893688  0.95694107    -0.00500
H1013       H  0.08830674  0.19390227  0.93693970     0.00900
H1014       H  0.05545242  0.32736421  0.97860335     0.04600
H1015       H  0.02082246  0.31370254  0.98370446     0.06500
H1016       H  0.02928712  0.32396670  0.95835460     0.07400
C1017       C  0.39909321  0.28017998  0.95812207    -0.22200
C1018       C  0.38140216  0.25688601  0.96085177     0.09800
C1019       C  0.39038251  0.23455862  0.97457190     0.10200
C1020       C  0.41705991  0.23583190  0.98487042    -0.17100
C1021       C  0.43491455  0.25903345  0.98194556    -0.27600
C1022       C  0.42546343  0.28178068  0.96861648     0.18500
C1023       C  0.35474884  0.25564423  0.94801312     0.12500
C1024       C  0.37176397  0.20953246  0.97847239    -0.11900
H1025       H  0.42425536  0.21838416  0.99502476     0.12700
C1026       C  0.44229523  0.30832978  0.96522247    -0.22700
H1027       H  0.39232612  0.29726216  0.94753929     0.08400
C1028       C  0.33056012  0.27542972  0.95042898     0.04700
C1029       C  0.30773965  0.27585341  0.93606532    -0.20000
C1030       C  0.30851571  0.25705473  0.91917205    -0.12300
C1031       C  0.33212635  0.23601859  0.91758728     0.13400
C1032       C  0.35482223  0.23577665  0.93192811    -0.22700
C1033       C  0.32887149  0.29610696  0.96815790    -0.05800
H1034       H  0.28971150  0.29171438  0.93766602     0.15000
C1035       C  0.33384741  0.21353157  0.90092787    -0.15900
H1036       H  0.37335554  0.22054940  0.93018598     0.09300
H1037       H  0.42849748  0.32808074  0.96894542     0.07100
H1038       H  0.44863303  0.30932588  0.94906204     0.08300
H1039       H  0.46207658  0.30887741  0.97471491     0.07400
H1040       H  0.36877571  0.19698921  0.96431147     0.02300
H1041       H  0.35032958  0.21789180  0.98405255     0.02700
H1042       H  0.38161469  0.19445518  0.99005282     0.06200
H1043       H  0.30820652  0.30957943  0.96813706     0.05200
H1044       H  0.34680333  0.31097214  0.96760116    -0.00500
H1045       H  0.33041984  0.28363447  0.98254603     0.00900
H1046       H  0.35245948  0.19753663  0.90317754     0.04600
H1047       H  0.33678462  0.22403297  0.88604087     0.06500
H1048       H  0.31390134  0.20134391  0.90068642     0.07400
C1049       C  0.37074976  0.98504166  0.30826420    -0.22200
C1050       C  0.36816536  0.50558567  0.29015843     0.09800
C1051       C  0.39338364  0.51616912  0.28168564     0.10200
C1052       C  0.41983659  0.51253265  0.29239314    -0.17100
C1053       C  0.42118933  0.49945512  0.31160374    -0.27600
C1054       C  0.39679166  0.98245741  0.31918997     0.18500
C1055       C  0.34016519  0.50570588  0.27910608     0.12500
C1056       C  0.39217625  0.53183439  0.26166891    -0.11900
H1057       H  0.43932320  0.52045163  0.28598968     0.12700
C1058       C  0.39743436  0.96570813  0.33885769    -0.22700
H1059       H  0.35184659  0.97506036  0.31396410     0.08400
C1060       C  0.33424970  0.48325550  0.26567042     0.04700
C1061       C  0.30668348  0.48248656  0.25691910    -0.20000
C1062       C  0.28289773  0.50200919  0.26240272    -0.12300
C1063       C  0.29060137  0.02259344  0.27691103     0.13400
C1064       C  0.31882883  0.02238411  0.28500068    -0.22700
C1065       C  0.35693093  0.45940446  0.26088495    -0.05800
H1066       H  0.30477769  0.46622896  0.24540411     0.15000
C1067       C  0.27066457  0.04728905  0.28424059    -0.15900
H1068       H  0.32417496  0.03860944  0.29614606     0.09300
H1069       H  0.41377045  0.94725824  0.33814361     0.07100
H1070       H  0.37629475  0.95658941  0.34202004     0.08300
H1071       H  0.40236711  0.98009869  0.35177580     0.07400
H1072       H  0.37700394  0.55130627  0.26272256     0.02300
H1073       H  0.38458340  0.51748269  0.24947128     0.02700
H1074       H  0.41371232  0.53906105  0.25736434     0.06200
H1075       H  0.34864698  0.44298657  0.25031318     0.05200
H1076       H  0.36396890  0.44802103  0.27506454    -0.00500
H1077       H  0.37593738  0.46856898  0.25378136     0.00900
H1078       H  0.26969980  0.04691296  0.30106101     0.04600
H1079       H  0.24854652  0.04639697  0.27865327     0.06500
H1080       H  0.27893320  0.06825881  0.27938653     0.07400
C1081       C  0.17520376  0.48556071  0.27153822    -0.22200
C1082       C  0.17975905  0.99255022  0.29439038     0.09800
C1083       C  0.20807719  0.99430367  0.30180493     0.10200
C1084       C  0.23106828  0.99414638  0.28806532    -0.17100
C1085       C  0.22649433  0.99436863  0.26672611    -0.27600
C1086       C  0.19853262  0.48630680  0.25809435     0.18500
C1087       C  0.15414681  0.99538938  0.30768409     0.12500
C1088       C  0.21392635  0.99690468  0.32421753    -0.11900
H1089       H  0.25252970  0.99434228  0.29441446     0.12700
C1090       C  0.19156152  0.48068088  0.23598363    -0.22700
H1091       H  0.15383845  0.48137615  0.26580504     0.08400
C1092       C  0.13753654  0.02191651  0.30926059     0.04700
C1093       C  0.11092051  0.02268527  0.31927614    -0.20000
C1094       C  0.10024942  0.99738491  0.32743300    -0.12300
C1095       C  0.11887796  0.47253928  0.32818592     0.13400
C1096       C  0.14462728  0.47120911  0.31703070    -0.22700
C1097       C  0.14750198  0.04921139  0.29979662    -0.05800
H1098       H  0.09773054  0.04286107  0.31979114     0.15000
C1099       C  0.11365333  0.44734034  0.34191485    -0.15900
H1100       H  0.15907605  0.45187915  0.31782578     0.09300
H1101       H  0.16794337  0.48000797  0.23318237     0.07100
H1102       H  0.20109242  0.45919690  0.23123071     0.08300
H1103       H  0.19914013  0.49806169  0.22616003     0.07400
H1104       H  0.20634893  0.97763035  0.33217146     0.02300
H1105       H  0.20229794  0.01677904  0.33023299     0.02700
H1106       H  0.23732508  0.99833303  0.32758920     0.06200
H1107       H  0.13227940  0.06820286  0.30278671     0.05200
H1108       H  0.14904637  0.04633081  0.28313496    -0.00500
H1109       H  0.16901363  0.05403166  0.30608168     0.00900
H1110       H  0.11092158  0.42752816  0.33266670     0.04600
H1111       H  0.09452643  0.45121477  0.35168721     0.06500
H1112       H  0.13256321  0.44340291  0.35222796     0.07400
C1113       C  0.24776961  0.13949466  0.22159640    -0.22200
C1114       C  0.24876827  0.11379318  0.21015524     0.09800
C1115       C  0.24479997  0.11538253  0.18902678     0.10200
C1116       C  0.24300225  0.14261002  0.17967078    -0.17100
C1117       C  0.24254441  0.16885577  0.19086340    -0.27600
C1118       C  0.24364049  0.16699530  0.21244507     0.18500
C1119       C  0.24975291  0.08551021  0.22083423     0.12500
C1120       C  0.24010322  0.08860731  0.17644737    -0.11900
H1121       H  0.24047578  0.14319326  0.16332244     0.12700
C1122       C  0.23973987  0.19239573  0.22682048    -0.22700
H1123       H  0.24914350  0.13798178  0.23799620     0.08400
C1124       C  0.27368033  0.06552012  0.22009338     0.04700
C1125       C  0.27179183  0.03811332  0.22894703    -0.20000
C1126       C  0.24776164  0.03038393  0.24069811    -0.12300
C1127       C  0.22441398  0.05266128  0.24265768     0.13400
C1128       C  0.22572709  0.07884065  0.23192397    -0.22700
C1129       C  0.30191874  0.07366626  0.21114866    -0.05800
H1130       H  0.29009824  0.02266972  0.22722136     0.15000
C1131       C  0.19781003  0.05186413  0.25580369    -0.15900
H1132       H  0.20773669  0.09496959  0.23240543     0.09300
H1133       H  0.25895166  0.19300602  0.23696156     0.07100
H1134       H  0.22054899  0.18944148  0.23638008     0.08300
H1135       H  0.23648994  0.21378629  0.21960679     0.07400
H1136       H  0.22097442  0.07784933  0.18213843     0.02300
H1137       H  0.25910114  0.07297161  0.17722032     0.02700
H1138       H  0.23606701  0.09400147  0.16022477     0.06200
H1139       H  0.31882377  0.05565165  0.21236812     0.05200
H1140       H  0.30977720  0.09264466  0.21948879    -0.00500
H1141       H  0.29937220  0.07946130  0.19494018     0.00900
H1142       H  0.20274742  0.04489651  0.27149276     0.04600
H1143       H  0.18121981  0.03912375  0.24843923     0.06500
H1144       H  0.18689020  0.07376931  0.25777334     0.07400
C1145       C  0.25680351  0.42086049  0.22918983    -0.22200
C1146       C  0.25532554  0.42550606  0.20834779     0.09800
C1147       C  0.25347982  0.45403586  0.20089036     0.10200
C1148       C  0.25269966  0.47751688  0.21457324    -0.17100
C1149       C  0.25437923  0.47352731  0.23595716    -0.27600
C1150       C  0.25691425  0.44392550  0.24305305     0.18500
C1151       C  0.25429094  0.39976847  0.19488453     0.12500
C1152       C  0.25204241  0.45964586  0.17840210    -0.11900
H1153       H  0.24964180  0.49889276  0.20809815     0.12700
C1154       C  0.26060197  0.43489565  0.26499049    -0.22700
H1155       H  0.25820608  0.39869290  0.23474901     0.08400
C1156       C  0.27948323  0.38291100  0.18967254     0.04700
C1157       C  0.27698187  0.35657901  0.17921266    -0.20000
C1158       C  0.24978546  0.34623297  0.17428100    -0.12300
C1159       C  0.22452030  0.36388750  0.17900663     0.13400
C1160       C  0.22724296  0.39045819  0.18909420    -0.22700
C1161       C  0.30894325  0.39246152  0.19555342    -0.05800
H1162       H  0.29643926  0.34345265  0.17564207     0.15000
C1163       C  0.19449361  0.35502547  0.17390327    -0.15900
H1164       H  0.20804129  0.40360731  0.19326515     0.09300
H1165       H  0.27976588  0.41939406  0.26652433     0.07100
H1166       H  0.24117922  0.42396069  0.26996046     0.08300
H1167       H  0.26450023  0.45272609  0.27554088     0.07400
H1168       H  0.23257957  0.45018836  0.17178563     0.02300
H1169       H  0.27162344  0.44952213  0.17107862     0.02700
H1170       H  0.25089238  0.48322864  0.17492438     0.06200
H1171       H  0.32643947  0.37688666  0.19021360     0.05200
H1172       H  0.31076269  0.39413230  0.21230719    -0.00500
H1173       H  0.31226619  0.41398264  0.18875672     0.00900
H1174       H  0.18956902  0.33564966  0.18285038     0.04600
H1175       H  0.19265782  0.35027191  0.15746865     0.06500
H1176       H  0.17775462  0.37241650  0.17757846     0.07400
C1177       C  0.25235912  0.50015801  0.25107956    -0.02200
C1178       C  0.46740032  0.76033661  0.01250446     0.02500
C1179       C  0.46490667  0.76033740  0.99113422     0.02500
C1180       C  0.49033864  0.75938671  0.97975258    -0.18000
C1181       C  0.01767269  0.75963828  0.98925271     0.02500
C1182       C  0.01993421  0.76042233  0.01057252     0.02500
C1183       C  0.49461978  0.76033175  0.02191846    -0.18000
H1184       H  0.49611933  0.76074034  0.03835034     0.04500
H1185       H  0.48890307  0.75882841  0.96332997     0.04500
C1186       C  0.26031838  0.50546148  0.75008137    -0.02200
C1187       C  0.48616039  0.74265381  0.74942294    -0.02200
C1188       C  0.24484840  0.98050222  0.00792664     0.02500
C1189       C  0.24184666  0.98205062  0.98661208     0.02500
C1190       C  0.23039763  0.50813502  0.97717345    -0.18000
C1191       C  0.23544584  0.53406861  0.98728325     0.02500
C1192       C  0.23684676  0.53422078  0.00862089     0.02500
C1193       C  0.23486462  0.50838470  0.01936165    -0.18000
H1194       H  0.23663673  0.50859368  0.03577786     0.04500
H1195       H  0.22883217  0.50807069  0.96075278     0.04500
O1196       O  0.29118710  0.75164503  0.88276159    -0.79900
O1197       O  0.24958193  0.70238588  0.83927050    -0.79900
O1198       O  0.23282702  0.73352381  0.90308857    -0.79900
O1199       O  0.26851761  0.76556275  0.81541251    -0.79900
O1200       O  0.25159562  0.70535033  0.87973494    -0.80000
O1201       O  0.29362700  0.74734472  0.84122359    -0.79900
O1202       O  0.22789280  0.72597251  0.81445679    -0.79900
O1203       O  0.26219664  0.77333709  0.90426579    -0.79900
C1204       C  0.28670307  0.76056344  0.90068832     1.09800
C1205       C  0.24274173  0.70367760  0.82086707     1.09700
C1206       C  0.24449856  0.70910692  0.89790856     1.09800
C1207       C  0.29168244  0.75269896  0.82251165     1.09700
O1208       O  0.27268785  0.80761339  0.83785285    -0.79900
O1209       O  0.18967375  0.72454766  0.88094028    -0.80000
O1210       O  0.22038296  0.80856147  0.88172942    -0.79900
O1211       O  0.18562260  0.76748563  0.83350888    -0.79900
O1212       O  0.18786196  0.72080950  0.83950806    -0.79900
O1213       O  0.26657699  0.81221997  0.87851299    -0.79900
O1214       O  0.22600578  0.80861560  0.83387990    -0.79900
O1215       O  0.18913211  0.77097144  0.88797935    -0.79900
Co1216     Co  0.27825739  0.77723321  0.85976205     1.51500
Co1217     Co  0.22166953  0.71618273  0.85949305     1.51700
Co1218     Co  0.22961552  0.76797502  0.88396192     1.51600
Co1219     Co  0.22726207  0.76693389  0.82651965     1.51500
O1220       O  0.23902749  0.75672240  0.85614410    -1.41800
C1221       C  0.24918917  0.82142712  0.83300672     1.09700
C1222       C  0.17816187  0.74719701  0.88960247     1.09800
C1223       C  0.24182793  0.82317260  0.88401204     1.09800
C1224       C  0.17361073  0.74360879  0.83336415     1.09700
O1225       O  0.29478136  0.74589183  0.15268281    -0.79900
O1226       O  0.24751122  0.69937545  0.11930796    -0.79900
O1227       O  0.23097674  0.72100248  0.18547604    -0.79900
O1228       O  0.28086833  0.75252309  0.10918494    -0.79900
O1229       O  0.24702621  0.69499335  0.15982882    -0.80000
O1230       O  0.30420823  0.78692779  0.12424226    -0.79900
O1231       O  0.23024521  0.73040762  0.09758560    -0.79900
O1232       O  0.27369277  0.76021293  0.18115650    -0.79900
C1233       C  0.29589245  0.74964407  0.17168266     1.09800
C1234       C  0.24095125  0.70539804  0.10122849     1.09700
C1235       C  0.24133502  0.69693265  0.17841469     1.09800
C1236       C  0.30331679  0.76779463  0.11047575     1.09700
O1237       O  0.24890420  0.80720278  0.11914572    -0.79900
O1238       O  0.18723278  0.71730510  0.16092492    -0.80000
O1239       O  0.22872568  0.80342698  0.16626793    -0.79900
O1240       O  0.19576892  0.77307533  0.11794353    -0.79900
O1241       O  0.18781447  0.72639676  0.11998639    -0.79900
O1242       O  0.27347760  0.80469155  0.15748785    -0.79900
O1243       O  0.23783987  0.78436319  0.09121753    -0.79900
O1244       O  0.18871025  0.76328982  0.16922828    -0.79900
Co1245     Co  0.27053046  0.77361014  0.13633332     1.51500
Co1246     Co  0.21893587  0.71158059  0.14015951     1.51700
Co1247     Co  0.23080727  0.76184210  0.17367936     1.51600
Co1248     Co  0.23743808  0.76386741  0.11554100     1.51500
O1249       O  0.23672527  0.75034605  0.14416014    -1.41800
C1250       C  0.24284180  0.80783052  0.09989293     1.09700
C1251       C  0.17534081  0.74026054  0.16866679     1.09800
C1252       C  0.25118195  0.81730395  0.16511410     1.09800
C1253       C  0.17994407  0.75220360  0.11424275     1.09700
O1254       O  0.06485453  0.52388957  0.65785560    -0.79900
O1255       O  0.47892455  0.94819496  0.61901748    -0.79900
O1256       O  0.02125814  0.94027707  0.66845516    -0.79900
O1257       O  0.04326445  0.99016564  0.59173823    -0.79900
O1258       O  0.47498961  0.94270880  0.65986556    -0.80000
O1259       O  0.06429092  0.50033203  0.61930621    -0.79900
O1260       O  0.02601117  0.94872737  0.61728747    -0.79900
O1261       O  0.06383846  0.97853193  0.66726936    -0.79900
C1262       C  0.07617371  0.50146234  0.66634094     1.09800
C1263       C  0.50309227  0.93684516  0.61296791     1.09700
C1264       C  0.49740120  0.92852580  0.66678373     1.09800
C1265       C  0.06418949  0.49325225  0.60019303     1.09700
O1266       O  0.04749381  0.55699571  0.62542997    -0.79900
O1267       O  0.45685943  0.00464834  0.66266726    -0.80000
O1268       O  0.02106400  0.52485820  0.68294687    -0.79900
O1269       O  0.48489497  0.48854776  0.59893019    -0.79900
O1270       O  0.45968390  0.01011686  0.62259011    -0.79900
O1271       O  0.00753315  0.54844794  0.65482563    -0.79900
O1272       O  0.01268358  0.53483182  0.60981716    -0.79900
O1273       O  0.48005385  0.48382305  0.68719105    -0.79900
Co1274     Co  0.03284237  0.52339396  0.63735134     1.51500
Co1275     Co  0.46975643  0.97777688  0.64125438     1.51700
Co1276     Co  0.02050546  0.48236641  0.67482659     1.51600
Co1277     Co  0.02055065  0.49062078  0.61601432     1.51500
O1278       O  0.00863234  0.49029410  0.64514671    -1.41800
C1279       C  0.02876544  0.55660746  0.61138670     1.09700
C1280       C  0.45853636  0.99549823  0.68051035     1.09800
C1281       C  0.01153061  0.54797677  0.67387830     1.09800
C1282       C  0.46358953  0.00539761  0.60404180     1.09700
O1283       O  0.00038228  0.54569891  0.34729914    -0.79900
O1284       O  0.45537377  0.00212405  0.38126972    -0.79900
O1285       O  0.47250767  0.98227258  0.31521744    -0.79900
O1286       O  0.00987538  0.53298817  0.39159169    -0.79900
O1287       O  0.44838865  0.99980720  0.34134710    -0.80000
O1288       O  0.04306966  0.55516513  0.37498789    -0.79900
O1289       O  0.48560471  0.98369170  0.40314868    -0.79900
O1290       O  0.01385800  0.52383284  0.31892098    -0.79900
C1291       C  0.00333730  0.54630275  0.32828556     1.09800
C1292       C  0.46148513  0.99646689  0.39945025     1.09700
C1293       C  0.44921319  0.99322810  0.32291619     1.09800
C1294       C  0.02535893  0.55521368  0.38944652     1.09700
O1295       O  0.06115671  0.49914350  0.38077336    -0.79900
O1296       O  0.46833941  0.93875587  0.34051350    -0.80000
O1297       O  0.05533943  0.97669549  0.33333496    -0.79900
O1298       O  0.02612964  0.94630197  0.38193724    -0.79900
O1299       O  0.47916063  0.94086803  0.38115116    -0.79900
O1300       O  0.05828550  0.52166197  0.34216945    -0.79900
O1301       O  0.04069926  0.98817413  0.40870317    -0.79900
O1302       O  0.01351798  0.93785725  0.33061329    -0.79900
Co1303     Co  0.02789150  0.52133711  0.36362165     1.51500
Co1304     Co  0.46489294  0.97179112  0.36089989     1.51700
Co1305     Co  0.01372268  0.98030978  0.32634487     1.51600
Co1306     Co  0.01891432  0.98829683  0.38465881     1.51500
O1307       O  0.00407447  0.98745563  0.35616756    -1.41800
C1308       C  0.06237173  0.49333106  0.40002672     1.09700
C1309       C  0.49008834  0.92569927  0.33216411     1.09800
C1310       C  0.06975536  0.49844679  0.33480299     1.09800
C1311       C  0.50478188  0.93174983  0.38629288     1.09700
C1312       C  0.52606634  0.77243057  0.48994244     0.02500
C1313       C  0.52704647  0.77267815  0.51146545     0.02500
C1314       C  0.52863721  0.74602003  0.52180720    -0.18000
C1315       C  0.52749679  0.71954140  0.51145861     0.02500
C1316       C  0.52415658  0.71948993  0.49024326     0.02500
C1317       C  0.52370647  0.74585521  0.47978950    -0.18000
H1318       H  0.52098361  0.74567648  0.46343891     0.04500
H1319       H  0.52972273  0.74590802  0.53824766     0.04500
C1320       C  0.29030468  0.01110378  0.51227770     0.02500
C1321       C  0.29175619  0.00990199  0.49104730     0.02500
C1322       C  0.26670481  0.00650177  0.47956262    -0.18000
C1323       C  0.23995323  0.00393707  0.48889956     0.02500
C1324       C  0.23835383  0.00539072  0.51037246     0.02500
C1325       C  0.26368027  0.00913377  0.52174394    -0.18000
H1326       H  0.26278882  0.00980368  0.53816721     0.04500
H1327       H  0.26814515  0.00537389  0.46316929     0.04500
C1328       C  0.98938947  0.73735465  0.24895739    -0.02200
C1329       C  0.00988800  0.81142114  0.27573366    -0.22200
C1330       C  0.48891056  0.81432691  0.29057012     0.09800
C1331       C  0.46910679  0.79255755  0.29215259     0.10200
C1332       C  0.47073130  0.76887057  0.27861142    -0.17100
C1333       C  0.49154181  0.76565645  0.26288161    -0.27600
C1334       C  0.01253875  0.78754077  0.26232806     0.18500
C1335       C  0.48749785  0.84115806  0.30344762     0.12500
C1336       C  0.44631594  0.79411509  0.30829698    -0.11900
H1337       H  0.45479951  0.75276118  0.28003620     0.12700
C1338       C  0.03893847  0.78773547  0.24892150    -0.22700
H1339       H  0.02477639  0.82862789  0.27466978     0.08400
C1340       C  0.00951092  0.84711584  0.31738372     0.04700
C1341       C  0.00933801  0.87458008  0.32684313    -0.20000
C1342       C  0.48759766  0.89636940  0.32289029    -0.12300
C1343       C  0.46505227  0.88996022  0.30909143     0.13400
C1344       C  0.46523931  0.86244995  0.29980333    -0.22700
C1345       C  0.03340394  0.82462814  0.32237200    -0.05800
H1346       H  0.02664265  0.87930781  0.33730010     0.15000
C1347       C  0.44140351  0.91186904  0.30252476    -0.15900
H1348       H  0.44856681  0.85809701  0.28873769     0.09300
H1349       H  0.05504805  0.80251448  0.25498197     0.07100
H1350       H  0.03308968  0.79656944  0.23379822     0.08300
H1351       H  0.05117345  0.76654246  0.24808927     0.07400
H1352       H  0.43164201  0.81375085  0.30610593     0.02300
H1353       H  0.45677951  0.79504899  0.32348488     0.02700
H1354       H  0.43298120  0.77489060  0.30787807     0.06200
H1355       H  0.04838934  0.83252770  0.33412555     0.05200
H1356       H  0.04625538  0.81905887  0.30866575    -0.00500
H1357       H  0.02399134  0.80473978  0.32820679     0.00900
H1358       H  0.44127855  0.91376459  0.28573973     0.04600
H1359       H  0.44401450  0.93383813  0.30856178     0.06500
H1360       H  0.42015417  0.90456645  0.30739241     0.07400
C1361       C  0.47626925  0.62414496  0.31481457    -0.22200
C1362       C  0.99226036  0.62879740  0.29725918     0.09800
C1363       C  0.01054758  0.60600926  0.28939842     0.10200
C1364       C  0.01288525  0.57910435  0.29943081    -0.17100
C1365       C  0.99746830  0.57430936  0.31727171    -0.27600
C1366       C  0.47841970  0.59722683  0.32486116     0.18500
C1367       C  0.98962624  0.65784708  0.28738554     0.12500
C1368       C  0.02752480  0.61005169  0.27034466    -0.11900
H1369       H  0.02750727  0.56197319  0.29355866     0.12700
C1370       C  0.45981309  0.59341214  0.34318772    -0.22700
H1371       H  0.46217928  0.64170685  0.32070550     0.08400
C1372       C  0.46502363  0.66744916  0.27629459     0.04700
C1373       C  0.46469216  0.69397346  0.26589695    -0.20000
C1374       C  0.98937206  0.71066905  0.26442899    -0.12300
C1375       C  0.01237789  0.70269507  0.27857430     0.13400
C1376       C  0.01222418  0.67638313  0.28935148    -0.22700
C1377       C  0.43919707  0.64911426  0.27478846    -0.05800
H1378       H  0.44453955  0.70082059  0.25862985     0.15000
C1379       C  0.03837416  0.71998410  0.28266410    -0.15900
H1380       H  0.03044059  0.66982963  0.29908442     0.09300
H1381       H  0.44454975  0.61254013  0.34565668     0.07100
H1382       H  0.47345909  0.59083937  0.35705455     0.08300
H1383       H  0.44682590  0.57413131  0.34108170     0.07400
H1384       H  0.04283213  0.62740367  0.27264194     0.02300
H1385       H  0.01252345  0.61619237  0.25763122     0.02700
H1386       H  0.04025020  0.58987945  0.26599458     0.06200
H1387       H  0.42197440  0.65914720  0.26479434     0.05200
H1388       H  0.42983686  0.64633645  0.29002481    -0.00500
H1389       H  0.44586548  0.62747297  0.26841504     0.00900
H1390       H  0.03850690  0.72696767  0.29878687     0.04600
H1391       H  0.03914049  0.73924271  0.27326153     0.06500
H1392       H  0.05845518  0.70635917  0.27968067     0.07400
C1393       C  0.49648817  0.66431510  0.45311261    -0.22200
C1394       C  0.02131316  0.64560247  0.45073384     0.09800
C1395       C  0.04604313  0.64954837  0.46287517     0.10200
C1396       C  0.04594159  0.67296519  0.47655387    -0.17100
C1397       C  0.52147806  0.69244740  0.47832897    -0.27600
C1398       C  0.49624059  0.68756001  0.46685357     0.18500
C1399       C  0.02106650  0.62275224  0.43490576     0.12500
C1400       C  0.07264240  0.62937335  0.46107895    -0.11900
H1401       H  0.06524098  0.67679041  0.48534408     0.12700
C1402       C  0.46872296  0.70644208  0.46871217    -0.22700
H1403       H  0.47742385  0.66095604  0.44393823     0.08400
C1404       C  0.51005924  0.59543153  0.43881302     0.04700
C1405       C  0.51068493  0.57443714  0.42336398    -0.20000
C1406       C  0.02255674  0.57981928  0.40412878    -0.12300
C1407       C  0.03263254  0.60771691  0.40017650     0.13400
C1408       C  0.03169022  0.62876736  0.41565437    -0.22700
C1409       C  0.49825341  0.58833845  0.45929425    -0.05800
H1410       H  0.50272745  0.55333895  0.42654458     0.15000
C1411       C  0.04390811  0.61586516  0.37972562    -0.15900
H1412       H  0.03957095  0.65003872  0.41282762     0.09300
H1413       H  0.45072259  0.69274977  0.47272942     0.07100
H1414       H  0.46359148  0.71728045  0.45399494     0.08700
H1415       H  0.46995377  0.72334263  0.48061066     0.07400
H1416       H  0.08111365  0.63009018  0.44541588     0.02300
H1417       H  0.06719689  0.60683309  0.46459890     0.02700
H1418       H  0.09001537  0.63545869  0.47171788     0.06200
H1419       H  0.49083766  0.56589035  0.45980067     0.05200
H1420       H  0.47958212  0.60361346  0.46285864    -0.00500
H1421       H  0.01509025  0.59035955  0.47099925     0.00900
H1422       H  0.04875948  0.63913779  0.37910626     0.04600
H1423       H  0.02747558  0.61203668  0.36779111     0.06500
H1424       H  0.06428100  0.60296198  0.37643459     0.07400
C1425       C  0.04356613  0.82433282  0.44783689    -0.22200
C1426       C  0.51954104  0.84457486  0.44888280     0.09800
C1427       C  0.49951830  0.84284458  0.46476069     0.10200
C1428       C  0.50286403  0.81990285  0.47872246    -0.17100
C1429       C  0.52597179  0.79894763  0.47722455    -0.27600
C1430       C  0.04718219  0.80169038  0.46188521     0.18500
C1431       C  0.51602424  0.86677104  0.43273225     0.12500
C1432       C  0.47466496  0.86512841  0.46689982    -0.11900
H1433       H  0.48680736  0.81770106  0.49036288     0.12700
C1434       C  0.07351396  0.78091736  0.46012468    -0.22700
H1435       H  0.05907279  0.82610264  0.43576440     0.08400
C1436       C  0.03436636  0.88993900  0.43168717     0.04700
C1437       C  0.03091615  0.90980567  0.41572661    -0.20000
C1438       C  0.50930849  0.90744260  0.40085341    -0.12300
C1439       C  0.49123017  0.88380303  0.40165301     0.13400
C1440       C  0.49503727  0.86359496  0.41752419    -0.22700
C1441       C  0.05672800  0.89451070  0.44796722    -0.05800
H1442       H  0.04443228  0.92818139  0.41550469     0.15000
C1443       C  0.46836366  0.87938997  0.38571551    -0.15900
H1444       H  0.48149899  0.84524830  0.41816970     0.09300
H1445       H  0.08840752  0.78787599  0.44822614     0.07100
H1446       H  0.06731281  0.75886566  0.45594380     0.08300
H1447       H  0.08577240  0.77984323  0.47462518     0.07400
H1448       H  0.46041846  0.86478872  0.45329155     0.02300
H1449       H  0.48308862  0.88705615  0.46857555     0.02700
H1450       H  0.46141430  0.86091350  0.48040016     0.06200
H1451       H  0.06832838  0.91453873  0.44533936     0.05200
H1452       H  0.07300368  0.87589790  0.44829308    -0.00500
H1453       H  0.04609349  0.89652815  0.46295799     0.00900
H1454       H  0.47827793  0.87872931  0.37045074     0.04600
H1455       H  0.45127447  0.89722198  0.38637550     0.06500
H1456       H  0.45775296  0.85869296  0.38798351     0.07400
C1457       C  0.17725397  0.97276608  0.45984511    -0.22200
C1458       C  0.16817961  0.49414948  0.44657596     0.09800
C1459       C  0.18072322  0.52087964  0.44983310     0.10200
C1460       C  0.20323181  0.52239098  0.46400319    -0.17100
C1461       C  0.21455099  0.00063279  0.47541944    -0.27600
C1462       C  0.20018322  0.97448476  0.47380821     0.18500
C1463       C  0.14178504  0.49265507  0.43409614     0.12500
C1464       C  0.17015933  0.54781254  0.43847004    -0.11900
H1465       H  0.21327755  0.54277872  0.46636658     0.12700
C1466       C  0.20892750  0.94780427  0.48602740    -0.22700
H1467       H  0.16567428  0.95304928  0.45889391     0.08400
C1468       C  0.14220921  0.48481465  0.41340859     0.04700
C1469       C  0.11601123  0.48516953  0.40242592    -0.20000
C1470       C  0.08963384  0.49300197  0.41186414    -0.12300
C1471       C  0.09044109  0.00372596  0.43239873     0.13400
C1472       C  0.11641489  0.00359280  0.44334386    -0.22700
C1473       C  0.17021203  0.47630831  0.40302608    -0.05800
H1474       H  0.11610502  0.47916351  0.38652235     0.15000
C1475       C  0.06321059  0.01471706  0.44301536    -0.15900
H1476       H  0.11640441  0.01074594  0.45902699     0.09300
H1477       H  0.21412034  0.92931936  0.47561340     0.07100
H1478       H  0.19077803  0.94228214  0.49588996     0.08300
H1479       H  0.22824796  0.95051947  0.49569737     0.07400
H1480       H  0.14707472  0.55321878  0.44191923     0.02300
H1481       H  0.17248505  0.54411130  0.42191441     0.02700
H1482       H  0.18259538  0.56680916  0.44271174     0.06200
H1483       H  0.16672271  0.47084980  0.38680164     0.05200
H1484       H  0.18084762  0.45701413  0.41062745    -0.00500
H1485       H  0.18479605  0.49452548  0.40383141     0.00900
H1486       H  0.06775665  0.02314202  0.45844435     0.04600
H1487       H  0.04839473  0.99689921  0.44482711     0.06500
H1488       H  0.05243823  0.03276146  0.43419818     0.07400
C1489       C  0.42117354  0.50354095  0.45017118    -0.22200
C1490       C  0.39457092  0.01008921  0.44358843     0.09800
C1491       C  0.38907761  0.01589645  0.42292414     0.10200
C1492       C  0.41174498  0.01253429  0.40917684    -0.17100
C1493       C  0.43978571  0.00292079  0.41547067    -0.27600
C1494       C  0.44413533  0.49994150  0.43649773     0.18500
C1495       C  0.37053261  0.00977847  0.45800980     0.12500
C1496       C  0.35903341  0.02448401  0.41522692    -0.11900
H1497       H  0.40711039  0.01641596  0.39324343     0.12700
C1498       C  0.47358739  0.49012778  0.44471763    -0.22700
H1499       H  0.42477586  0.49879946  0.46612415     0.08400
C1500       C  0.35864200  0.98341973  0.46332280     0.04700
C1501       C  0.33323090  0.98419962  0.47460932    -0.20000
C1502       C  0.31950702  0.01068698  0.48050251    -0.12300
C1503       C  0.32861631  0.53564575  0.47490097     0.13400
C1504       C  0.35430363  0.53608511  0.46395081    -0.22700
C1505       C  0.37212919  0.95458878  0.45642580    -0.05800
H1506       H  0.32356196  0.96411499  0.47842178     0.15000
C1507       C  0.31318546  0.56426566  0.48024613    -0.15900
H1508       H  0.36247064  0.55672127  0.45967184     0.09300
H1509       H  0.48019771  0.46824089  0.43875219     0.07100
H1510       H  0.47374750  0.48860254  0.46152489     0.08300
H1511       H  0.48964471  0.50588169  0.44043117     0.07400
H1512       H  0.35116365  0.04528233  0.42230092     0.02300
H1513       H  0.34414265  0.00734785  0.41902428     0.02700
H1514       H  0.35846113  0.02747392  0.39851916     0.06200
H1515       H  0.35967534  0.93620121  0.46162581     0.05200
H1516       H  0.39441650  0.95147222  0.46266650    -0.00500
H1517       H  0.37287962  0.95390090  0.43960752     0.00900
H1518       H  0.32754278  0.57713105  0.48985409     0.04600
H1519       H  0.29285550  0.56177546  0.48860062     0.06500
H1520       H  0.30771571  0.57657714  0.46614551     0.07400
C1521       C  0.11700914  0.47294808  0.55798647    -0.22200
C1522       C  0.13940694  0.49099647  0.56252971     0.09800
C1523       C  0.13945514  0.01098889  0.58069500     0.10200
C1524       C  0.11562822  0.00936965  0.59353446    -0.17100
C1525       C  0.09114151  0.48953924  0.58828163    -0.27600
C1526       C  0.09303110  0.47168645  0.57067408     0.18500
C1527       C  0.16343785  0.49248866  0.54793574     0.12500
C1528       C  0.16191161  0.03243818  0.58531375    -0.11900
H1529       H  0.11311766  0.02430847  0.60619864     0.12700
C1530       C  0.07023374  0.45086242  0.56515040    -0.22700
H1531       H  0.11809738  0.46012640  0.54418276     0.08400
C1532       C  0.18933643  0.97406071  0.54881170     0.04700
C1533       C  0.21183905  0.97745568  0.53516633    -0.20000
C1534       C  0.21155610  0.00123954  0.52186796    -0.12300
C1535       C  0.18881996  0.52102134  0.52333774     0.13400
C1536       C  0.16554539  0.51780912  0.53643709    -0.22700
C1537       C  0.19142922  0.94922672  0.56364189    -0.05800
H1538       H  0.23036046  0.96196289  0.53532436     0.15000
C1539       C  0.19089261  0.54989663  0.51299790    -0.15900
H1540       H  0.14938920  0.53558847  0.53821504     0.09300
H1541       H  0.06626064  0.43667326  0.57828115     0.07100
H1542       H  0.07702735  0.43658629  0.55225582     0.08300
H1543       H  0.04985861  0.46289662  0.56044591     0.07400
H1544       H  0.16278755  0.04829930  0.57274913     0.02300
H1545       H  0.18341051  0.02076302  0.58716720     0.02700
H1546       H  0.15703043  0.04471973  0.59950105     0.06200
H1547       H  0.21185710  0.93566134  0.56189250     0.05200
H1548       H  0.17315613  0.93508635  0.56119217    -0.00500
H1549       H  0.19073249  0.95782404  0.57938479     0.00900
H1550       H  0.17190793  0.55403868  0.50279269     0.04600
H1551       H  0.21074454  0.55114042  0.50393187     0.06500
H1552       H  0.19102150  0.56738708  0.52459325     0.07400
C1553       C  0.41956419  0.01830688  0.55532358    -0.22200
C1554       C  0.39151861  0.01757482  0.56293992     0.09800
C1555       C  0.38539861  0.51088117  0.58348435     0.10200
C1556       C  0.40930890  0.50889665  0.59657752    -0.17100
C1557       C  0.43962008  0.01208548  0.58942316    -0.27600
C1558       C  0.44379695  0.01562818  0.56832333     0.18500
C1559       C  0.36682507  0.01670496  0.54870820     0.12500
C1560       C  0.35538299  0.51062859  0.59207396    -0.11900
H1561       H  0.40573174  0.50702314  0.61272790     0.12700
C1562       C  0.47347183  0.01704534  0.55940800    -0.22700
H1563       H  0.42246015  0.02025347  0.53910433     0.08400
C1564       C  0.34975349  0.53691745  0.54172405     0.04700
C1565       C  0.32473010  0.53459209  0.52988492    -0.20000
C1566       C  0.31671240  0.01245561  0.52484098    -0.12300
C1567       C  0.33301927  0.98699500  0.53079027     0.13400
C1568       C  0.35795288  0.98948525  0.54264672    -0.22700
C1569       C  0.35948731  0.56643432  0.54744949    -0.05800
H1570       H  0.31228883  0.55403928  0.52510265     0.15000
C1571       C  0.32455330  0.95693218  0.52517639    -0.15900
H1572       H  0.37025803  0.97000960  0.54759926     0.09300
H1573       H  0.47241900  0.02188147  0.54291850     0.07100
H1574       H  0.48600955  0.99599513  0.56132416     0.08300
H1575       H  0.48492721  0.03456156  0.56700075     0.07400
H1576       H  0.34441472  0.49154317  0.58616874     0.02300
H1577       H  0.34261463  0.53076137  0.58765287     0.02700
H1578       H  0.35578898  0.50936931  0.60889238     0.06200
H1579       H  0.34486876  0.58411344  0.54104619     0.05200
H1580       H  0.38154412  0.56900420  0.54156165    -0.00500
H1581       H  0.35984090  0.56885686  0.56419319     0.00900
H1582       H  0.34213964  0.94573665  0.51629153     0.04600
H1583       H  0.30439946  0.95694842  0.51599575     0.06500
H1584       H  0.32120775  0.94432609  0.53918939     0.07400
C1585       C  0.05065727  0.65884684  0.54768641    -0.22200
C1586       C  0.02431584  0.64622101  0.55076372     0.09800
C1587       C  0.49939441  0.65635219  0.53979415     0.10200
C1588       C  0.50140369  0.67948717  0.52620769    -0.17100
C1589       C  0.52763161  0.69263606  0.52354242    -0.27600
C1590       C  0.05268368  0.68198702  0.53418932     0.18500
C1591       C  0.02336083  0.62291136  0.56600052     0.12500
C1592       C  0.47069178  0.64344032  0.54295204    -0.11900
H1593       H  0.48225855  0.68806161  0.51816849     0.12700
C1594       C  0.08174703  0.69451405  0.53170466    -0.22700
H1595       H  0.06970147  0.65078217  0.55607239     0.08400
C1596       C  0.52865841  0.59338523  0.56054023     0.04700
C1597       C  0.52945920  0.57221180  0.57575789    -0.20000
C1598       C  0.02578704  0.58003445  0.59629920    -0.12300
C1599       C  0.02022657  0.60944638  0.60167084     0.13400
C1600       C  0.01889752  0.63060792  0.58637077    -0.22700
C1601       C  0.53431157  0.58449211  0.53887094    -0.05800
H1602       H  0.53392726  0.54958409  0.57176334     0.15000
C1603       C  0.01537161  0.61847112  0.62337962    -0.15900
H1604       H  0.01491706  0.65331170  0.59030682     0.09300
H1605       H  0.09772919  0.67713086  0.52673377     0.07100
H1606       H  0.08899062  0.70337921  0.54644757     0.08300
H1607       H  0.08153105  0.71209603  0.52027734     0.07400
H1608       H  0.46426546  0.64603328  0.55905545     0.02300
H1609       H  0.47227485  0.61999859  0.53906116     0.02700
H1610       H  0.45342649  0.65418839  0.53333017     0.06200
H1611       H  0.53832877  0.56061218  0.53736703     0.05200
H1612       H  0.55362593  0.59501240  0.53326407    -0.00500
H1613       H  0.51541337  0.59119941  0.52916998     0.00900
H1614       H  0.03526844  0.61332476  0.63242153     0.04600
H1615       H  0.99724985  0.60681992  0.62976094     0.06500
H1616       H  0.00995979  0.64216685  0.62473855     0.07400
C1617       C  0.53795354  0.84436188  0.53926372    -0.22200
C1618       C  0.51449377  0.84512490  0.55262546     0.09800
C1619       C  0.49436134  0.82337623  0.55117003     0.10200
C1620       C  0.49847066  0.80126375  0.53669502    -0.17100
C1621       C  0.52275793  0.79946199  0.52406034    -0.27600
C1622       C  0.54290369  0.82130650  0.52548128     0.18500
C1623       C  0.51178670  0.86821467  0.56844915     0.12500
C1624       C  0.46921411  0.82256323  0.56545732    -0.11900
H1625       H  0.48309327  0.78447358  0.53571684     0.12700
C1626       C  0.07053971  0.82012409  0.51386031    -0.22700
H1627       H  0.05310036  0.86113013  0.54033623     0.08400
C1628       C  0.03130846  0.86943428  0.58470148     0.04700
C1629       C  0.02753850  0.89155245  0.59932217    -0.20000
C1630       C  0.50414587  0.91202849  0.59848807    -0.12300
C1631       C  0.48354099  0.90984257  0.58252836     0.13400
C1632       C  0.48804154  0.88838663  0.56757567    -0.22700
C1633       C  0.05621922  0.84715857  0.58699124    -0.05800
H1634       H  0.04321249  0.89294348  0.61154133     0.15000
C1635       C  0.45721890  0.93047226  0.58051110    -0.15900
H1636       H  0.47289843  0.88732221  0.55500109     0.09300
H1637       H  0.07404166  0.79971218  0.50523878     0.07100
H1638       H  0.57030700  0.83878604  0.50305167     0.08300
H1639       H  0.08904994  0.82138307  0.52458469     0.07400
H1640       H  0.45414431  0.84185595  0.56316795     0.02300
H1641       H  0.97633845  0.82231591  0.58097140     0.02700
H1642       H  0.45673323  0.80301958  0.56295541     0.06200
H1643       H  0.06882236  0.85058523  0.60111889     0.05200
H1644       H  0.07117020  0.84846506  0.57405409    -0.00500
H1645       H  0.04793621  0.82508118  0.58757845     0.00900
H1646       H  0.44376530  0.92538286  0.56707800     0.04600
H1647       H  0.46393122  0.95287741  0.57858997     0.06500
H1648       H  0.44339663  0.92907444  0.59407053     0.07400
C1649       C  0.04072746  0.75064183  0.20304353    -0.22200
C1650       C  0.06418374  0.73125646  0.20737763     0.09800
C1651       C  0.06218781  0.71146760  0.22335377     0.10200
C1652       C  0.03692612  0.71197333  0.23487159    -0.17100
C1653       C  0.01434026  0.73399004  0.23278196    -0.27600
C1654       C  0.01580549  0.75232269  0.21516673     0.18500
C1655       C  0.09163422  0.73403706  0.19636317     0.12500
C1656       C  0.08739350  0.69080767  0.22911520    -0.11900
H1657       H  0.03574258  0.69483582  0.24578541     0.12700
C1658       C  0.99248642  0.77506744  0.20908951    -0.22700
H1659       H  0.04246748  0.76540431  0.19039324     0.08400
C1660       C  0.10067056  0.71489702  0.18068069     0.04700
C1661       C  0.12822608  0.71707771  0.17230498    -0.20000
C1662       C  0.14617177  0.73938008  0.17807298    -0.12300
C1663       C  0.13619702  0.75944745  0.19324394     0.13400
C1664       C  0.10929004  0.75617975  0.20229324    -0.22700
C1665       C  0.08089223  0.69292108  0.17228342    -0.05800
H1666       H  0.13556321  0.70140866  0.16094211     0.15000
C1667       C  0.15381907  0.78391559  0.20058839    -0.15900
H1668       H  0.10193682  0.77092925  0.21425499     0.09300
H1669       H  0.97349948  0.76459015  0.20271962     0.07100
H1670       H  0.99978813  0.78956759  0.19699166     0.08300
H1671       H  0.98618642  0.78922801  0.22208304     0.07400
H1672       H  0.10642666  0.70331569  0.23302898     0.02300
H1673       H  0.09307960  0.67587363  0.21641895     0.02700
H1674       H  0.08254205  0.67737905  0.24247607     0.06200
H1675       H  0.09115330  0.68008241  0.15973697     0.05200
H1676       H  0.06087747  0.70433239  0.16624286    -0.00500
H1677       H  0.07494137  0.67760159  0.18422051     0.00900
H1678       H  0.14298230  0.79646666  0.21304489     0.04600
H1679       H  0.15682821  0.79928779  0.18799199     0.06500
H1680       H  0.17510098  0.77514747  0.20646012     0.07400
C1681       C  0.42721197  0.71794610  0.21100774    -0.22200
C1682       C  0.40732588  0.74159427  0.21312898     0.09800
C1683       C  0.41391887  0.76441784  0.22619349     0.10200
C1684       C  0.44006435  0.76286893  0.23720900    -0.17100
C1685       C  0.46035460  0.73853911  0.23611302    -0.27600
C1686       C  0.45330364  0.71579921  0.22213964     0.18500
C1687       C  0.37934071  0.74185525  0.20184751     0.12500
C1688       C  0.39341772  0.79084967  0.22823095    -0.11900
H1689       H  0.44458676  0.78172968  0.24607736     0.12700
C1690       C  0.47167862  0.68812141  0.21860821    -0.22700
H1691       H  0.42198039  0.70051702  0.20077290     0.08400
C1692       C  0.37682891  0.75066156  0.18141283     0.04700
C1693       C  0.34950252  0.75207349  0.17184999    -0.20000
C1694       C  0.32443853  0.74512853  0.18228100    -0.12300
C1695       C  0.32734984  0.73537851  0.20257420     0.13400
C1696       C  0.35470647  0.73383019  0.21206311    -0.22700
C1697       C  0.40288473  0.75918736  0.16987670    -0.05800
H1698       H  0.34761503  0.75952328  0.15629446     0.15000
C1699       C  0.30198555  0.72555208  0.21409172    -0.15900
H1700       H  0.35690768  0.72663571  0.22766629     0.09300
H1701       H  0.47948029  0.68759381  0.20274147     0.07100
H1702       H  0.45843689  0.66914994  0.22103663     0.08300
H1703       H  0.49040987  0.68495745  0.22882655     0.07400
H1704       H  0.37236450  0.78442986  0.23409431     0.02300
H1705       H  0.38995288  0.80133038  0.21319761     0.02700
H1706       H  0.40187173  0.80712772  0.23883942     0.06200
H1707       H  0.39715683  0.76589907  0.15410911     0.05200
H1708       H  0.41908249  0.74051869  0.16914667    -0.00500
H1709       H  0.41270267  0.77765270  0.17762908     0.00900
H1710       H  0.30846655  0.71687152  0.22926227     0.04600
H1711       H  0.29214934  0.70799023  0.20539450     0.06500
H1712       H  0.28588836  0.74396640  0.21643283     0.07400
C1713       C  0.23284253  0.66354992  0.05173636    -0.22200
C1714       C  0.24510877  0.63639143  0.05746329     0.09800
C1715       C  0.25789965  0.63248362  0.07677767     0.10200
C1716       C  0.25740266  0.65587507  0.09030035    -0.17100
C1717       C  0.24382943  0.68295229  0.08513290    -0.27600
C1718       C  0.23170886  0.68694992  0.06534305     0.18500
C1719       C  0.24227216  0.61161994  0.04367680     0.12500
C1720       C  0.27105703  0.60332468  0.08339663    -0.11900
H1721       H  0.26687901  0.65260207  0.10526282     0.12700
C1722       C  0.21651422  0.71510893  0.05846397    -0.22700
H1723       H  0.22310841  0.66604170  0.03677737     0.08400
C1724       C  0.21616462  0.59747682  0.04236385     0.04700
C1725       C  0.21508705  0.57241867  0.03051818    -0.20000
C1726       C  0.23956198  0.56117904  0.02022519    -0.12300
C1727       C  0.26572144  0.57534708  0.02154892     0.13400
C1728       C  0.26657427  0.60082297  0.03302151    -0.22700
C1729       C  0.18974783  0.60835200  0.05387935    -0.05800
H1730       H  0.19516601  0.56128184  0.02942655     0.15000
C1731       C  0.29326974  0.56365471  0.01181309    -0.15900
H1732       H  0.28660647  0.61173548  0.03431904     0.09300
H1733       H  0.19742366  0.72035047  0.06810936     0.07100
H1734       H  0.20857013  0.71385353  0.04255681     0.08300
H1735       H  0.23158159  0.73290798  0.05922044     0.07400
H1736       H  0.28927599  0.59650318  0.07333485     0.02300
H1737       H  0.25448942  0.58691107  0.08264321     0.02700
H1738       H  0.27952540  0.60391586  0.09919629     0.06200
H1739       H  0.17139595  0.59426168  0.05144195     0.05200
H1740       H  0.18275898  0.63059116  0.04877637    -0.00500
H1741       H  0.19476273  0.60875573  0.07037273     0.00900
H1742       H  0.30024025  0.57942591  0.00043124     0.04600
H1743       H  0.29100876  0.54245833  0.00424318     0.06500
H1744       H  0.31044475  0.56046501  0.02358704     0.07400
C1745       C  0.23915181  0.88681398  0.08180713    -0.22200
C1746       C  0.23978440  0.88239125  0.06074823     0.09800
C1747       C  0.24152853  0.85407601  0.05282985     0.10200
C1748       C  0.24211394  0.83064139  0.06614824    -0.17100
C1749       C  0.24150718  0.83458799  0.08737046    -0.27600
C1750       C  0.24018448  0.86318140  0.09531996     0.18500
C1751       C  0.24038426  0.90748645  0.04703272     0.12500
C1752       C  0.24332878  0.84855737  0.03029175    -0.11900
H1753       H  0.24363393  0.80894719  0.05975884     0.12700
C1754       C  0.23968459  0.86905603  0.11778834    -0.22700
H1755       H  0.23819079  0.90883186  0.08763870     0.08400
C1756       C  0.21490618  0.92032782  0.03820830     0.04700
C1757       C  0.21696713  0.94317977  0.02439710    -0.20000
C1758       C  0.24393356  0.95325828  0.01940520    -0.12300
C1759       C  0.26944884  0.93991546  0.02798323     0.13400
C1760       C  0.26731448  0.91715892  0.04171899    -0.22700
C1761       C  0.18567485  0.91022215  0.04366400    -0.05800
H1762       H  0.19752295  0.95385053  0.01798619     0.15000
C1763       C  0.29922261  0.94918823  0.02299460    -0.15900
H1764       H  0.28680634  0.90675323  0.04827637     0.09300
H1765       H  0.23776261  0.89268548  0.12116641     0.07100
H1766       H  0.26000522  0.86001587  0.12498332     0.08300
H1767       H  0.22090181  0.85903545  0.12460525     0.07400
H1768       H  0.26286730  0.85810087  0.02416516     0.02300
H1769       H  0.22388279  0.85853766  0.02251296     0.02700
H1770       H  0.24469966  0.82498847  0.02668760     0.06200
H1771       H  0.16798928  0.92275811  0.03549836     0.05200
H1772       H  0.18219848  0.91300435  0.06020343    -0.00500
H1773       H  0.18436415  0.88695625  0.03966557     0.00900
H1774       H  0.30984814  0.95698822  0.03697815     0.04600
H1775       H  0.29897517  0.96672127  0.01152538     0.06500
H1776       H  0.31239104  0.93034667  0.01684583     0.07400
C1777       C  0.26460851  0.58936062  0.95127588    -0.22200
C1778       C  0.24337988  0.61209305  0.95284012     0.09800
C1779       C  0.21959418  0.60925160  0.96570987     0.10200
C1780       C  0.21768556  0.58362412  0.97687509    -0.17100
C1781       C  0.23891402  0.56076558  0.97532479    -0.27600
C1782       C  0.26277077  0.56369974  0.96237810     0.18500
C1783       C  0.24486615  0.63722908  0.93913536     0.12500
C1784       C  0.19594737  0.63296316  0.96727520    -0.11900
H1785       H  0.19930636  0.58117184  0.98662595     0.12700
C1786       C  0.28682939  0.54050912  0.95998776    -0.22700
H1787       H  0.28258894  0.59154851  0.94110505     0.08400
C1788       C  0.25818991  0.66278615  0.94484807     0.04700
C1789       C  0.25797960  0.68619762  0.93117676    -0.20000
C1790       C  0.24562687  0.68395893  0.91176234    -0.12300
C1791       C  0.23305566  0.65780796  0.90594412     0.13400
C1792       C  0.23268957  0.63494983  0.91980014    -0.22700
C1793       C  0.27278509  0.66510704  0.96522624    -0.05800
H1794       H  0.26772024  0.70610830  0.93552649     0.15000
C1795       C  0.21905977  0.65392980  0.88541521    -0.15900
H1796       H  0.22270297  0.61509555  0.91559665     0.09300
H1797       H  0.30778478  0.54965975  0.96396263     0.07100
H1798       H  0.28755890  0.53300545  0.94398211     0.08300
H1799       H  0.28450050  0.52137604  0.96979511     0.07400
H1800       H  0.18567081  0.63686494  0.95217386     0.02300
H1801       H  0.20507857  0.65330604  0.97272021     0.02700
H1802       H  0.17891104  0.62717838  0.97801796     0.06200
H1803       H  0.28242734  0.68641607  0.96722924     0.05200
H1804       H  0.29033816  0.64777389  0.96670855    -0.00500
H1805       H  0.25690561  0.66259308  0.97748183     0.00900
H1806       H  0.23525876  0.65539890  0.87325274     0.04600
H1807       H  0.20123584  0.67067512  0.88311289     0.06500
H1808       H  0.20968067  0.63240911  0.88391243     0.07400
C1809       C  0.25200763  0.89507668  0.91104528    -0.22200
C1810       C  0.23103437  0.89375094  0.92620976     0.09800
C1811       C  0.21167443  0.87145825  0.92582387     0.10200
C1812       C  0.21513042  0.84973372  0.91112900    -0.17100
C1813       C  0.23767386  0.84951220  0.89682678    -0.27600
C1814       C  0.25558135  0.87313206  0.89628569     0.18500
C1815       C  0.23156384  0.91433324  0.94335948     0.12500
C1816       C  0.18822317  0.86984472  0.94141454    -0.11900
H1817       H  0.20082760  0.83198449  0.91155235     0.12700
C1818       C  0.27808780  0.87545623  0.88019424    -0.22700
H1819       H  0.26634000  0.91281544  0.91126737     0.08400
C1820       C  0.25293731  0.91094819  0.95868640     0.04700
C1821       C  0.25490501  0.93257132  0.97350041    -0.20000
C1822       C  0.23521842  0.95683792  0.97376690    -0.12300
C1823       C  0.21193583  0.95852332  0.95961520     0.13400
C1824       C  0.21077795  0.93753610  0.94428538    -0.22700
C1825       C  0.27379635  0.88462472  0.95927473    -0.05800
H1826       H  0.27266222  0.93114828  0.98428836     0.15000
C1827       C  0.18813445  0.98224673  0.96018212    -0.15900
H1828       H  0.19377464  0.93944109  0.93287680     0.09300
H1829       H  0.28904460  0.89616353  0.88144075     0.07100
H1830       H  0.26772987  0.87466359  0.86496738     0.08300
H1831       H  0.29484101  0.85739885  0.88168481     0.07400
H1832       H  0.17325337  0.88947897  0.94041190     0.02300
H1833       H  0.19797117  0.86847310  0.95685347     0.02700
H1834       H  0.17532741  0.85053551  0.93908464     0.06200
H1835       H  0.28866374  0.88509481  0.97256695     0.05200
H1836       H  0.28707722  0.88358347  0.94536353    -0.00500
H1837       H  0.26159512  0.86467732  0.96030110     0.00900
H1838       H  0.18865949  0.99552054  0.94618751     0.04600
H1839       H  0.18974751  0.99674265  0.97352592     0.06500
H1840       H  0.16690315  0.97237006  0.96099926     0.07400
C1841       C  0.47721773  0.67934517  0.70975359    -0.22200
C1842       C  0.99753330  0.65789896  0.71677796     0.09800
C1843       C  0.01593773  0.66460721  0.73299834     0.10200
C1844       C  0.01305712  0.69210093  0.74218395    -0.17100
C1845       C  0.99111178  0.71348757  0.73661658    -0.27600
C1846       C  0.47363456  0.70681856  0.71912920     0.18500
C1847       C  0.00038808  0.62934963  0.70602992     0.12500
C1848       C  0.03832559  0.64244037  0.74113618    -0.11900
H1849       H  0.02859980  0.69634343  0.75387090     0.12700
C1850       C  0.45079414  0.72766702  0.70987773    -0.22700
H1851       H  0.46398063  0.67432995  0.69670701     0.08400
C1852       C  0.47902896  0.60902574  0.70677942     0.04700
C1853       C  0.48304092  0.58243298  0.69626816    -0.20000
C1854       C  0.00814611  0.57561066  0.68532543    -0.12300
C1855       C  0.02995354  0.59577727  0.68500786     0.13400
C1856       C  0.02544760  0.62264428  0.69483469    -0.22700
C1857       C  0.45217893  0.61486734  0.71916402    -0.05800
H1858       H  0.46650421  0.56678694  0.69670284     0.15000
C1859       C  0.05852002  0.58863110  0.67496436    -0.15900
H1860       H  0.04184679  0.63840149  0.69408463     0.09300
H1861       H  0.43781930  0.71707466  0.69803390     0.07100
H1862       H  0.46111239  0.74561112  0.70217735     0.08300
H1863       H  0.43527051  0.73626386  0.72133501     0.07400
H1864       H  0.05479003  0.63685375  0.72947075     0.02300
H1865       H  0.02771307  0.62251998  0.74564593     0.02700
H1866       H  0.04981180  0.65060820  0.75466442     0.06200
H1867       H  0.43816301  0.59614691  0.71883289     0.05200
H1868       H  0.43938619  0.63406205  0.71311867    -0.00500
H1869       H  0.45827355  0.61901111  0.73519212     0.00900
H1870       H  0.07311276  0.60682489  0.67614257     0.04600
H1871       H  0.05513105  0.58393341  0.65870783     0.06500
H1872       H  0.06947923  0.56938099  0.68240765     0.07400
C1873       C  0.47736340  0.85025847  0.67684100    -0.22200
C1874       C  0.49007653  0.84551010  0.69604292     0.09800
C1875       C  0.00565182  0.86754214  0.70515079     0.10200
C1876       C  0.00808814  0.89385910  0.69485361    -0.17100
C1877       C  0.49510259  0.89909669  0.67567361    -0.27600
C1878       C  0.47971176  0.87671308  0.66647915     0.18500
C1879       C  0.48684042  0.81756711  0.70684374     0.12500
C1880       C  0.01901797  0.86365028  0.72597492    -0.11900
H1881       H  0.01960815  0.91092711  0.70209509     0.12700
C1882       C  0.46630996  0.87934577  0.64562089    -0.22700
H1883       H  0.46560926  0.83315086  0.66985688     0.08400
C1884       C  0.46218486  0.81270869  0.71822254     0.04700
C1885       C  0.46196739  0.78812601  0.73074436    -0.20000
C1886       C  0.48654076  0.76838472  0.73346726    -0.12300
C1887       C  0.01045384  0.77232122  0.72017079     0.13400
C1888       C  0.01006138  0.79664506  0.70728292    -0.22700
C1889       C  0.43615649  0.83388347  0.71744820    -0.05800
H1890       H  0.44191784  0.78475937  0.73820460     0.15000
C1891       C  0.03777615  0.75285005  0.71931191    -0.15900
H1892       H  0.02876158  0.80020152  0.69805424     0.09300
H1893       H  0.44259105  0.87754347  0.64663824     0.07100
H1894       H  0.47549196  0.86156418  0.63581743     0.08300
H1895       H  0.47034153  0.89999915  0.63807944     0.07400
H1896       H  0.03544051  0.84514590  0.72589174     0.02300
H1897       H  0.00201192  0.85927884  0.73711819     0.02700
H1898       H  0.02983373  0.88329819  0.73104536     0.06200
H1899       H  0.41859399  0.82715571  0.72742355     0.05200
H1900       H  0.42753957  0.83539323  0.70169751    -0.00500
H1901       H  0.44235396  0.85566066  0.72249355     0.00900
H1902       H  0.03919943  0.74196812  0.70429069     0.04600
H1903       H  0.03972120  0.73623241  0.73116906     0.06500
H1904       H  0.05683972  0.76612007  0.72134584     0.07400
C1905       C  0.03881552  0.72720796  0.79666570    -0.22200
C1906       C  0.06008124  0.74699956  0.79351395     0.09800
C1907       C  0.05569479  0.76752436  0.77789955     0.10200
C1908       C  0.03076747  0.76729964  0.76556861    -0.17100
C1909       C  0.01046855  0.74537364  0.76671699    -0.27600
C1910       C  0.01391553  0.72641214  0.78405062     0.18500
C1911       C  0.08779959  0.74457899  0.80555102     0.12500
C1912       C  0.07809894  0.78903593  0.77347730    -0.11900
H1913       H  0.02795955  0.78462609  0.75475034     0.12700
C1914       C  0.99199725  0.70495805  0.78985302    -0.22700
H1915       H  0.04196864  0.71195046  0.80906445     0.08400
C1916       C  0.09360987  0.76315716  0.82200529     0.04700
C1917       C  0.12158095  0.76213471  0.83091874    -0.20000
C1918       C  0.14374102  0.74208605  0.82441389    -0.12300
C1919       C  0.13708414  0.72230978  0.80865141     0.13400
C1920       C  0.10945659  0.72404078  0.79946826    -0.22700
C1921       C  0.07012569  0.78355047  0.83044565    -0.05800
H1922       H  0.12614124  0.77698011  0.84314375     0.15000
C1923       C  0.15854831  0.69976077  0.80021238    -0.15900
H1924       H  0.10497170  0.70957499  0.78698477     0.09300
H1925       H  0.97183965  0.71669414  0.79499965     0.07100
H1926       H  0.99971229  0.69101035  0.80273137     0.08300
H1927       H  0.98729673  0.69016867  0.77719160     0.07400
H1928       H  0.09896665  0.77722608  0.76982090     0.02300
H1929       H  0.08125987  0.80325567  0.78677632     0.02700
H1930       H  0.07176455  0.80316063  0.76036707     0.06200
H1931       H  0.07805468  0.79625123  0.84347791     0.05200
H1932       H  0.05205340  0.77085817  0.83577408    -0.00500
H1933       H  0.06178053  0.79905225  0.81868075     0.00900
H1934       H  0.15020211  0.67786613  0.80208072     0.04600
H1935       H  0.17992931  0.69953581  0.80757940     0.06500
H1936       H  0.16156058  0.70380538  0.78379794     0.07400
C1937       C  0.41854472  0.76479288  0.78321317    -0.22200
C1938       C  0.40106513  0.74150180  0.78019729     0.09800
C1939       C  0.41128856  0.71792316  0.76833004     0.10200
C1940       C  0.43853848  0.71845550  0.75929576    -0.17100
C1941       C  0.45616592  0.74274148  0.76079193    -0.27600
C1942       C  0.44566341  0.76594151  0.77391166     0.18500
C1943       C  0.37255444  0.74183139  0.79034514     0.12500
C1944       C  0.39346738  0.69188908  0.76537676    -0.11900
H1945       H  0.44576886  0.69901035  0.75135061     0.12700
C1946       C  0.46136595  0.79301466  0.77841526    -0.22700
H1947       H  0.41071699  0.78258934  0.79285579     0.08400
C1948       C  0.37023772  0.73239319  0.81049150     0.04700
C1949       C  0.34326108  0.73469278  0.81996450    -0.20000
C1950       C  0.31826260  0.74686984  0.81002174    -0.12300
C1951       C  0.32052661  0.75515391  0.78939314     0.13400
C1952       C  0.34766022  0.75241631  0.77985778    -0.22700
C1953       C  0.39640930  0.72037690  0.82214187    -0.05800
H1954       H  0.34209058  0.72772654  0.83559387     0.15000
C1955       C  0.29485840  0.76730835  0.77731907    -0.15900
H1956       H  0.34967007  0.75924075  0.76424761     0.09300
H1957       H  0.46718858  0.79360485  0.79477499     0.07100
H1958       H  0.44698265  0.81246120  0.77477894     0.08300
H1959       H  0.48104924  0.79510033  0.76958283     0.07400
H1960       H  0.37251307  0.69870764  0.75803008     0.02300
H1961       H  0.38929807  0.68188218  0.78026852     0.02700
H1962       H  0.40452348  0.67508327  0.75563471     0.06200
H1963       H  0.39085825  0.71392711  0.83777483     0.05200
H1964       H  0.41268830  0.73703458  0.82325762    -0.00500
H1965       H  0.40610514  0.70092718  0.81426470     0.00900
H1966       H  0.30056212  0.77151084  0.76132029     0.04600
H1967       H  0.28658585  0.78827245  0.78396762     0.06500
H1968       H  0.27761946  0.75157907  0.77720330     0.07400
C1969       C  0.34401517  0.98212539  0.73701243    -0.22200
C1970       C  0.34966156  0.00333495  0.72285632     0.09800
C1971       C  0.32395626  0.52209668  0.71534447     0.10200
C1972       C  0.29642518  0.52000671  0.72367358    -0.17100
C1973       C  0.29313890  0.00053270  0.73971410    -0.27600
C1974       C  0.31614960  0.97905598  0.74471471     0.18500
C1975       C  0.37824964  0.00168288  0.71285833     0.12500
C1976       C  0.32872072  0.54528937  0.69988163    -0.11900
H1977       H  0.27956765  0.53583865  0.71890967     0.12700
C1978       C  0.31369192  0.95091082  0.75617008    -0.22700
H1979       H  0.36145070  0.96642205  0.74111743     0.08400
C1980       C  0.40086297  0.51138253  0.72149525     0.04700
C1981       C  0.42744550  0.50839835  0.71118682    -0.20000
C1982       C  0.43155269  0.99594181  0.69238603    -0.12300
C1983       C  0.40690701  0.98269166  0.68451768     0.13400
C1984       C  0.38072170  0.98578643  0.69486644    -0.22700
C1985       C  0.39960984  0.52506348  0.74222535    -0.05800
H1986       H  0.44679357  0.51619491  0.71817062     0.15000
C1987       C  0.40801287  0.96436775  0.66552147    -0.15900
H1988       H  0.36188238  0.97561426  0.68892570     0.09300
H1989       H  0.32295198  0.43256374  0.74732895     0.07100
H1990       H  0.29176385  0.94350513  0.75756550     0.08300
H1991       H  0.32423549  0.95230500  0.77129326     0.07400
H1992       H  0.33958051  0.03448063  0.68596201     0.02300
H1993       H  0.34552859  0.55955864  0.70554754     0.02700
H1994       H  0.30868910  0.55905070  0.69681649     0.06200
H1995       H  0.42114934  0.53175036  0.74731568     0.05200
H1996       H  0.39197333  0.50936149  0.75340254    -0.00500
H1997       H  0.38446080  0.54462733  0.74193758     0.00900
H1998       H  0.42331383  0.94530669  0.66784677     0.04600
H1999       H  0.41450735  0.97719996  0.65231490     0.06500
H2000       H  0.38665567  0.95592103  0.66174474     0.07400
C2001       C  0.21104335  0.98236377  0.70521716    -0.22200
C2002       C  0.18889559  0.50727923  0.70430235     0.09800
C2003       C  0.19574142  0.53260398  0.71464214     0.10200
C2004       C  0.22019448  0.53204748  0.72738402    -0.17100
C2005       C  0.23699799  0.50597703  0.73202592    -0.27600
C2006       C  0.23526778  0.98189406  0.71831558     0.18500
C2007       C  0.16064043  0.50512051  0.69373216     0.12500
C2008       C  0.17669519  0.56013500  0.71273311    -0.11900
H2009       H  0.22536908  0.55255443  0.73389270     0.12700
C2010       C  0.25415540  0.95426408  0.71755839    -0.22700
H2011       H  0.20674688  0.96320155  0.69637120     0.08400
C2012       C  0.15629031  0.51235646  0.67308973     0.04700
C2013       C  0.12847452  0.51110559  0.66442108    -0.20000
C2014       C  0.10524698  0.50191727  0.67581698    -0.12300
C2015       C  0.11294828  0.99095131  0.69594967     0.13400
C2016       C  0.14062064  0.99285520  0.70452642    -0.22700
C2017       C  0.18098667  0.52107081  0.66023963    -0.05800
H2018       H  0.12489844  0.51695840  0.64864973     0.15000
C2019       C  0.08921586  0.97994283  0.70880077    -0.15900
H2020       H  0.14458890  0.98626482  0.72012194     0.09300
H2021       H  0.26303953  0.95124999  0.70207059     0.07100
H2022       H  0.24123233  0.93546454  0.72120040     0.08300
H2023       H  0.27231243  0.95389205  0.72809467     0.07400
H2024       H  0.15456444  0.55624283  0.71795835     0.02300
H2025       H  0.17560207  0.56732066  0.69669704     0.02700
H2026       H  0.18492715  0.57806052  0.72201302     0.06200
H2027       H  0.17393206  0.52579165  0.64438123     0.05200
H2028       H  0.19806927  0.50317065  0.65992295    -0.00500
H2029       H  0.19024893  0.54081162  0.66659461     0.00900
H2030       H  0.09687927  0.97471261  0.72445225     0.04600
H2031       H  0.08123632  0.95982416  0.70205387     0.06500
H2032       H  0.07111652  0.99673674  0.70982928     0.07400
C2033       C  0.23300450  0.57608305  0.77995947    -0.22200
C2034       C  0.25603569  0.59402184  0.77769684     0.09800
C2035       C  0.28128653  0.58275844  0.76820751     0.10200
C2036       C  0.28281365  0.55402732  0.76115079    -0.17100
C2037       C  0.25876498  0.53614112  0.76122093    -0.27600
C2038       C  0.23358673  0.54780771  0.77176131     0.18500
C2039       C  0.25424400  0.62357794  0.78698721     0.12500
C2040       C  0.30669840  0.60121970  0.76505807    -0.11900
H2041       H  0.30367560  0.54592607  0.75590754     0.12700
C2042       C  0.20604404  0.53233708  0.77421823    -0.22700
H2043       H  0.21395450  0.58451140  0.78795548     0.08400
C2044       C  0.23541361  0.64646105  0.77960751     0.04700
C2045       C  0.23343353  0.67321931  0.79007213    -0.20000
C2046       C  0.24963468  0.67755345  0.80789317    -0.12300
C2047       C  0.27030097  0.65518932  0.81413369     0.13400
C2048       C  0.27177526  0.62851559  0.80386393    -0.22700
C2049       C  0.21750144  0.64267376  0.76070883    -0.05800
H2050       H  0.21852508  0.69044919  0.78460921     0.15000
C2051       C  0.29134561  0.65895087  0.83144907    -0.15900
H2052       H  0.28642955  0.61100996  0.80932495     0.09300
H2053       H  0.18747800  0.54641519  0.76848318     0.07100
H2054       H  0.20267524  0.52782977  0.79052346     0.08300
H2055       H  0.20539300  0.51191238  0.76574542     0.07400
H2056       H  0.31614338  0.60746045  0.77982497     0.02300
H2057       H  0.29953503  0.62111224  0.75651498     0.02700
H2058       H  0.32411217  0.58957587  0.75625031     0.06200
H2059       H  0.20448755  0.66288583  0.75674003     0.05200
H2060       H  0.20238494  0.62521699  0.76294262    -0.00500
H2061       H  0.23189293  0.63683876  0.74778406     0.00900
H2062       H  0.27995958  0.65945216  0.84616583     0.04600
H2063       H  0.30273519  0.67923117  0.82934296     0.06500
H2064       H  0.30806415  0.64071234  0.83224678     0.07400
C2065       C  0.26934069  0.95500831  0.79798787    -0.22200
C2066       C  0.25062669  0.93340823  0.79281185     0.09800
C2067       C  0.23236821  0.93768037  0.77581180     0.10200
C2068       C  0.23475962  0.96228692  0.76363886    -0.17100
C2069       C  0.25642732  0.98244675  0.76674291    -0.27600
C2070       C  0.27232504  0.97958319  0.78559055     0.18500
C2071       C  0.25144132  0.90578633  0.80463644     0.12500
C2072       C  0.21096606  0.91563681  0.76995889    -0.11900
H2073       H  0.21917886  0.96506921  0.75142927     0.12700
C2074       C  0.29340616  0.00119594  0.79285902    -0.22700
H2075       H  0.28245237  0.95208167  0.81164839     0.08400
C2076       C  0.27457379  0.88465289  0.80263838     0.04700
C2077       C  0.27352225  0.85790483  0.81265903    -0.20000
C2078       C  0.24956339  0.85120726  0.82428700    -0.12300
C2079       C  0.22658456  0.87263818  0.82662130     0.13400
C2080       C  0.22801286  0.89972402  0.81694466    -0.22700
C2081       C  0.29992420  0.88978999  0.78926672    -0.05800
H2082       H  0.29113477  0.84163860  0.81073139     0.15000
C2083       C  0.20071169  0.86740325  0.83947280    -0.15900
H2084       H  0.21042963  0.91608954  0.81859506     0.09300
H2085       H  0.30535602  0.99355916  0.80670773     0.07100
H2086       H  0.28165233  0.02191648  0.79703563     0.08300
H2087       H  0.30823206  0.50468905  0.78085124     0.07400
H2088       H  0.19481041  0.91387584  0.78211658     0.02300
H2089       H  0.22246499  0.89413093  0.76753131     0.02700
H2090       H  0.19908201  0.92168910  0.75573283     0.06200
H2091       H  0.31574921  0.87075840  0.78900777     0.05200
H2092       H  0.31134035  0.90872643  0.79490390    -0.00500
H2093       H  0.29222557  0.89392636  0.77349110     0.00900
H2094       H  0.18572487  0.88703688  0.84045295     0.04600
H2095       H  0.20787396  0.86148875  0.85510115     0.06500
H2096       H  0.18839697  0.84973633  0.83282186     0.07400
C2097       C  0.07683479  0.78605346  0.04712387    -0.22200
C2098       C  0.09432089  0.76053687  0.04983493     0.09800
C2099       C  0.08965730  0.73611621  0.03754045     0.10200
C2100       C  0.06629773  0.73718562  0.02371551    -0.17100
C2101       C  0.04780987  0.76228277  0.02174345    -0.27600
C2102       C  0.05377049  0.78731812  0.03316633     0.18500
C2103       C  0.11606736  0.75940163  0.06654057     0.12500
C2104       C  0.10906375  0.70885926  0.03927295    -0.11900
H2105       H  0.06159589  0.71790479  0.01519875     0.12700
C2106       C  0.03579030  0.81551572  0.03138760    -0.22700
H2107       H  0.08068294  0.80489266  0.05641623     0.08400
C2108       C  0.14231149  0.77314593  0.06501687     0.04700
C2109       C  0.16176498  0.77191892  0.08147602    -0.20000
C2110       C  0.15594510  0.75676307  0.09933607    -0.12300
C2111       C  0.12932088  0.74352803  0.10095038     0.13400
C2112       C  0.10974350  0.74502011  0.08453963    -0.22700
C2113       C  0.15024071  0.78819891  0.04579116    -0.05800
H2114       H  0.18229902  0.78173145  0.07997398     0.15000
C2115       C  0.12055864  0.72843964  0.11988239    -0.15900
H2116       H  0.08928256  0.73494668  0.08580618     0.09300
H2117       H  0.04986475  0.83310704  0.02706448     0.07100
H2118       H  0.02571815  0.82100462  0.04621828     0.08300
H2119       H  0.01837014  0.81480249  0.01981122     0.07400
H2120       H  0.10786521  0.69972311  0.05476822     0.02300
H2121       H  0.13172517  0.71393407  0.03617093     0.02700
H2122       H  0.10278564  0.69200623  0.02828636     0.06200
H2123       H  0.17192365  0.79716592  0.04697864     0.05200
H2124       H  0.13421326  0.80642686  0.04247798    -0.00500
H2125       H  0.15054741  0.77252478  0.03297606     0.00900
H2126       H  0.09964150  0.73841517  0.12530670     0.04600
H2127       H  0.13652605  0.73043354  0.13224635     0.06500
H2128       H  0.11809367  0.70507947  0.11666875     0.07400
C2129       C  0.40287592  0.78583389  0.04380165    -0.22200
C2130       C  0.39777234  0.76023111  0.05421183     0.09800
C2131       C  0.41477069  0.73454728  0.05028950     0.10200
C2132       C  0.43683172  0.73510420  0.03603025    -0.17100
C2133       C  0.44214032  0.76075222  0.02574344    -0.27600
C2134       C  0.42523211  0.78654677  0.02975401     0.18500
C2135       C  0.37440728  0.76082114  0.06916484     0.12500
C2136       C  0.41000194  0.70682000  0.06144813    -0.11900
H2137       H  0.45034512  0.71558867  0.03307709     0.12700
C2138       C  0.43077964  0.81522535  0.02007342    -0.22700
H2139       H  0.38970035  0.80549397  0.04698888     0.08400
C2140       C  0.37806811  0.77229024  0.08875962     0.04700
C2141       C  0.35475043  0.77331386  0.10213462    -0.20000
C2142       C  0.32786027  0.76307253  0.09635462    -0.12300
C2143       C  0.32467168  0.75079993  0.07672259     0.13400
C2144       C  0.34805406  0.74996240  0.06341486    -0.22700
C2145       C  0.40655125  0.78340623  0.09550707    -0.05800
H2146       H  0.35750258  0.78249189  0.11713029     0.15000
C2147       C  0.29672889  0.73929420  0.06924001    -0.15900
H2148       H  0.34574065  0.74110614  0.04827171     0.09300
H2149       H  0.43494768  0.83142720  0.03207226     0.07100
H2150       H  0.41150483  0.82300407  0.01106787     0.08300
H2151       H  0.44969110  0.81399676  0.00992349     0.07400
H2152       H  0.38788082  0.69990515  0.05824984     0.02300
H2153       H  0.41263231  0.71032336  0.07801090     0.02700
H2154       H  0.42564438  0.68893222  0.05678998     0.06200
H2155       H  0.40583649  0.79124401  0.11144474     0.05200
H2156       H  0.41214379  0.80174239  0.08571750    -0.00500
H2157       H  0.42378448  0.76572261  0.09442235     0.00900
H2158       H  0.29826476  0.73136213  0.05334622     0.04600
H2159       H  0.27923658  0.75673355  0.06969603     0.06500
H2160       H  0.29115611  0.72069235  0.07873744     0.07400
C2161       C  0.13724495  0.75798595  0.93825846    -0.22200
C2162       C  0.10919772  0.75381356  0.93167115     0.09800
C2163       C  0.10364251  0.74636892  0.91129733     0.10200
C2164       C  0.12686266  0.74221700  0.89789722    -0.17100
C2165       C  0.15513746  0.74603140  0.90455174    -0.27600
C2166       C  0.16037718  0.75440346  0.92499419     0.18500
C2167       C  0.08640352  0.75545760  0.94695295     0.12500
C2168       C  0.07321397  0.74359092  0.90370143    -0.11900
H2169       H  0.12287277  0.73717992  0.88208785     0.12700
C2170       C  0.19020868  0.75918127  0.93330399    -0.22700
H2171       H  0.14100184  0.76368778  0.95399491     0.08400
C2172       C  0.07922505  0.73034781  0.95741174     0.04700
C2173       C  0.05724858  0.73255348  0.97176301    -0.20000
C2174       C  0.04315155  0.75943906  0.97624508    -0.12300
C2175       C  0.05135112  0.78486100  0.96647397     0.13400
C2176       C  0.07303053  0.78253271  0.95184836    -0.22700
C2177       C  0.09480862  0.70132704  0.95339946    -0.05800
H2178       H  0.05056677  0.71316657  0.97919549     0.15000
C2179       C  0.03745297  0.81452326  0.97093085    -0.15900
H2180       H  0.07937337  0.80182496  0.94410373     0.09300
H2181       H  0.20337186  0.73837091  0.93309219     0.07100
H2182       H  0.18957105  0.76666787  0.94932863     0.08300
H2183       H  0.20074858  0.77603113  0.92455023     0.07400
H2184       H  0.06049436  0.76448770  0.90595630     0.02300
H2185       H  0.06291471  0.72625599  0.91215017     0.02700
H2186       H  0.07263735  0.73810229  0.88729998     0.06200
H2187       H  0.08650856  0.68395927  0.96297704     0.05200
H2188       H  0.11821399  0.70261561  0.95679258    -0.00500
H2189       H  0.09198366  0.69509730  0.93727097     0.00900
H2190       H  0.05417971  0.82901599  0.97641267     0.04600
H2191       H  0.02052221  0.81416614  0.98264239     0.06500
H2192       H  0.02734265  0.82380302  0.95687109     0.07400
C2193       C  0.40134566  0.78187939  0.95568207    -0.22200
C2194       C  0.38352162  0.75860673  0.95816740     0.09800
C2195       C  0.39197279  0.73653867  0.97222471     0.10200
C2196       C  0.41826294  0.73793227  0.98302017    -0.17100
C2197       C  0.43629895  0.76105784  0.98035026    -0.27600
C2198       C  0.42732958  0.78363117  0.96671200     0.18500
C2199       C  0.35703147  0.75724517  0.94506078     0.12500
C2200       C  0.37317747  0.71160898  0.97595380    -0.11900
H2201       H  0.42505736  0.72055333  0.99333910     0.12700
C2202       C  0.44427311  0.81015814  0.96356087    -0.22700
H2203       H  0.39495750  0.79885840  0.94492608     0.08400
C2204       C  0.33246283  0.77651073  0.94757789     0.04700
C2205       C  0.30935949  0.77624759  0.93344426    -0.20000
C2206       C  0.31010712  0.75722200  0.91665844    -0.12300
C2207       C  0.33424293  0.73683038  0.91488827     0.13400
C2208       C  0.35725918  0.73729040  0.92899840    -0.22700
C2209       C  0.33061734  0.79731977  0.96522347    -0.05800
H2210       H  0.29102588  0.79170533  0.93518746     0.15000
C2211       C  0.33611773  0.71423318  0.89831182    -0.15900
H2212       H  0.37603410  0.72239478  0.92718704     0.09300
H2213       H  0.43027437  0.82994190  0.96684302     0.07100
H2214       H  0.45140266  0.81092996  0.94756071     0.08300
H2215       H  0.46356338  0.81085282  0.97353382     0.07400
H2216       H  0.37072253  0.69886012  0.96182179     0.02300
H2217       H  0.35154457  0.72008748  0.98108164     0.02700
H2218       H  0.38256021  0.69670849  0.98781054     0.06200
H2219       H  0.30971024  0.81038405  0.96530597     0.05200
H2220       H  0.34822071  0.81254915  0.96443957    -0.00500
H2221       H  0.33264534  0.78499517  0.97965968     0.00900
H2222       H  0.35521747  0.69878173  0.90035631     0.04600
H2223       H  0.33828749  0.72472842  0.88333519     0.06500
H2224       H  0.31653870  0.70147058  0.89843007     0.07400
C2225       C  0.36953963  0.49264012  0.30926042    -0.22200
C2226       C  0.36850828  0.00038063  0.29005488     0.09800
C2227       C  0.39290431  0.01350928  0.28237810     0.10200
C2228       C  0.41945874  0.01023033  0.29296567    -0.17100
C2229       C  0.42162432  0.99506542  0.31138745    -0.27600
C2230       C  0.39553810  0.48956024  0.32018155     0.18500
C2231       C  0.34024229  0.00155129  0.27932900     0.12500
C2232       C  0.39064505  0.03148427  0.26335379    -0.11900
H2233       H  0.43829730  0.02022125  0.28719920     0.12700
C2234       C  0.39530366  0.47473835  0.34057477    -0.22700
H2235       H  0.35005394  0.48448979  0.31553310     0.08400
C2236       C  0.33383748  0.98064446  0.26481961     0.04700
C2237       C  0.30607816  0.98108504  0.25622668    -0.20000
C2238       C  0.28278038  0.00052762  0.26268314    -0.12300
C2239       C  0.28995579  0.52517071  0.27597864     0.13400
C2240       C  0.31817799  0.52643782  0.28396296    -0.22700
C2241       C  0.35631436  0.95741772  0.25853594    -0.05800
H2242       H  0.30352105  0.96586709  0.24405907     0.15000
C2243       C  0.26921633  0.54965519  0.28261265    -0.15900
H2244       H  0.32299939  0.54361589  0.29449772     0.09300
H2245       H  0.41086646  0.45555594  0.34068785     0.07100
H2246       H  0.37369003  0.46698769  0.34412700     0.08300
H2247       H  0.40082979  0.49004291  0.35281809     0.07400
H2248       H  0.37437176  0.04985966  0.26545535     0.02300
H2249       H  0.38390876  0.01805503  0.25036594     0.02700
H2250       H  0.41159523  0.04055505  0.25957880     0.06200
H2251       H  0.34777429  0.94238566  0.24706277     0.05200
H2252       H  0.36356960  0.94434835  0.27195441    -0.00500
H2253       H  0.37520749  0.96746742  0.25191260     0.00900
H2254       H  0.26856135  0.55049676  0.29943726     0.04600
H2255       H  0.24705740  0.54744800  0.27738589     0.06500
H2256       H  0.27654127  0.57058446  0.27689305     0.07400
C2257       C  0.17517106  0.98816852  0.27372758    -0.22200
C2258       C  0.17836754  0.49139227  0.29216045     0.09800
C2259       C  0.20609630  0.49528806  0.30011164     0.10200
C2260       C  0.22974267  0.49562954  0.28692883    -0.17100
C2261       C  0.22646990  0.49403536  0.26551957    -0.27600
C2262       C  0.19786400  0.98834232  0.25977600     0.18500
C2263       C  0.15195420  0.49440607  0.30481131     0.12500
C2264       C  0.21059372  0.49999226  0.32250103    -0.11900
H2265       H  0.25068149  0.49789328  0.29373534     0.12700
C2266       C  0.18976523  0.98347231  0.23776665    -0.22700
H2267       H  0.15329056  0.98533451  0.26842436     0.08400
C2268       C  0.13347228  0.51986263  0.30410158     0.04700
C2269       C  0.10755013  0.52110959  0.31500723    -0.20000
C2270       C  0.09948004  0.49742573  0.32654358    -0.12300
C2271       C  0.11796438  0.97117379  0.32701276     0.13400
C2272       C  0.14468165  0.97058084  0.31709315    -0.22700
C2273       C  0.14088203  0.54558421  0.29157160    -0.05800
H2274       H  0.09290011  0.54024615  0.31379598     0.15000
C2275       C  0.10911924  0.94373750  0.33700272    -0.15900
H2276       H  0.15779631  0.95040652  0.31598850     0.09300
H2277       H  0.16598764  0.98363692  0.23545749     0.07100
H2278       H  0.19843351  0.96182902  0.23263730     0.08300
H2279       H  0.19755707  0.00073228  0.22793645     0.07400
H2280       H  0.20393009  0.48082520  0.33102606     0.02300
H2281       H  0.19745651  0.51956828  0.32750350     0.02700
H2282       H  0.23357936  0.50322611  0.32630295     0.06200
H2283       H  0.12439050  0.56391833  0.29300261     0.05200
H2284       H  0.14209688  0.53933302  0.27533655    -0.00500
H2285       H  0.16201655  0.55328280  0.29666653     0.00900
H2286       H  0.09024010  0.93524254  0.32897175     0.04600
H2287       H  0.10373265  0.94816079  0.35312948     0.06500
H2288       H  0.12674171  0.92635549  0.33665999     0.07400
C2289       C  0.24802124  0.63986638  0.22119350    -0.22200
C2290       C  0.24801302  0.61428821  0.20966334     0.09800
C2291       C  0.24362662  0.61612452  0.18858753     0.10200
C2292       C  0.24257447  0.64337786  0.17928851    -0.17100
C2293       C  0.24357493  0.66945777  0.19053057    -0.27600
C2294       C  0.24498788  0.66748258  0.21209721     0.18500
C2295       C  0.24914112  0.58586629  0.22015014     0.12500
C2296       C  0.23803185  0.58957461  0.17602461    -0.11900
H2297       H  0.23966787  0.64418802  0.16297204     0.12700
C2298       C  0.24288528  0.69301671  0.22644889    -0.22700
H2299       H  0.24973701  0.63821490  0.23757174     0.08400
C2300       C  0.27327232  0.56613949  0.21932028     0.04700
C2301       C  0.27179663  0.53866991  0.22816023    -0.20000
C2302       C  0.24769676  0.53038710  0.23961035    -0.12300
C2303       C  0.22378446  0.55211690  0.24123836     0.13400
C2304       C  0.22502086  0.57865034  0.23091198    -0.22700
C2305       C  0.30121539  0.57458646  0.21009718    -0.05800
H2306       H  0.29044989  0.52358465  0.22665802     0.15000
C2307       C  0.19660639  0.55027335  0.25364666    -0.15900
H2308       H  0.20683051  0.59455326  0.23134808     0.09300
H2309       H  0.26204937  0.69209920  0.23670870     0.07100
H2310       H  0.22329197  0.69169605  0.23587485     0.08300
H2311       H  0.24169818  0.71442976  0.21912028     0.07400
H2312       H  0.21867221  0.57934173  0.18184232     0.02300
H2313       H  0.25668932  0.57348848  0.17671149     0.02700
H2314       H  0.23392875  0.59510498  0.15983165     0.06200
H2315       H  0.31834943  0.55677836  0.21121368     0.05200
H2316       H  0.30898590  0.59374822  0.21827096    -0.00500
H2317       H  0.29819852  0.58019044  0.19387589     0.00900
H2318       H  0.20113634  0.54405706  0.26953697     0.04600
H2319       H  0.18127650  0.53631272  0.24606304     0.06500
H2320       H  0.18432649  0.57160198  0.25496683     0.07400
C2321       C  0.25680816  0.92110703  0.22891194    -0.22200
C2322       C  0.25515351  0.92637414  0.20812861     0.09800
C2323       C  0.25163360  0.95508002  0.20112247     0.10200
C2324       C  0.25036324  0.97812499  0.21514607    -0.17100
C2325       C  0.25243779  0.97353441  0.23645025    -0.27600
C2326       C  0.25500091  0.94375435  0.24318816     0.18500
C2327       C  0.25485259  0.90096222  0.19429240     0.12500
C2328       C  0.24907953  0.96134873  0.17874976    -0.11900
H2329       H  0.24669900  0.99966641  0.20902247     0.12700
C2330       C  0.25546824  0.93473551  0.26527332    -0.22700
H2331       H  0.25874237  0.89873508  0.23400626     0.08400
C2332       C  0.28042655  0.88476308  0.18903223     0.04700
C2333       C  0.27860642  0.85829306  0.17859731    -0.20000
C2334       C  0.25170991  0.84729384  0.17364066    -0.12300
C2335       C  0.22607561  0.86457921  0.17806359     0.13400
C2336       C  0.22811521  0.89114917  0.18826213    -0.22700
C2337       C  0.30956887  0.89520373  0.19481760    -0.05800
H2338       H  0.29833414  0.84556960  0.17510157     0.15000
C2339       C  0.19633495  0.85532719  0.17250802    -0.15900
H2340       H  0.20861409  0.90386277  0.19236278     0.09300
H2341       H  0.26111546  0.91114913  0.26710097     0.07100
H2342       H  0.23373576  0.93860742  0.27191127     0.08300
H2343       H  0.27161169  0.94610613  0.27424936     0.07400
H2344       H  0.22986042  0.95120148  0.17233560     0.02300
H2345       H  0.26874235  0.95234669  0.17093205     0.02700
H2346       H  0.24671296  0.98502284  0.17564532     0.06200
H2347       H  0.32744669  0.88014778  0.18940236     0.05200
H2348       H  0.31146165  0.89692428  0.21156446    -0.00500
H2349       H  0.31217015  0.91686622  0.18800823     0.00900
H2350       H  0.19131141  0.83600706  0.18146998     0.04600
H2351       H  0.19511449  0.85038528  0.15606006     0.06500
H2352       H  0.17929570  0.87257999  0.17583030     0.07400
C2353       C  0.75180580  0.00004162  0.25177297    -0.02200
C2354       C  0.96643074  0.25966924  0.01379259     0.02500
C2355       C  0.96376848  0.25866010  0.99246725     0.02500
C2356       C  0.98902414  0.25768686  0.98086493    -0.18000
C2357       C  0.51619990  0.25906959  0.98994364     0.02500
C2358       C  0.51858227  0.26130050  0.01121115     0.02500
C2359       C  0.99362136  0.26110433  0.02294672    -0.18000
H2360       H  0.99527562  0.26232537  0.03935517     0.04500
H2361       H  0.98737673  0.25624944  0.96447695     0.04500
C2362       C  0.76251450  0.00590133  0.74998664    -0.02200
C2363       C  0.98664406  0.24138099  0.75175693    -0.02200
C2364       C  0.73168462  0.48223319  0.00918058     0.02500
C2365       C  0.72822755  0.48227578  0.98789004     0.02500
C2366       C  0.74621714  0.00858786  0.97691315    -0.18000
C2367       C  0.75164238  0.03353645  0.98806444     0.02500
C2368       C  0.75250661  0.03222500  0.00937985     0.02500
C2369       C  0.74958493  0.00573828  0.01908040    -0.18000
H2370       H  0.75083344  0.00471279  0.03550097     0.04500
H2371       H  0.74493086  0.00986428  0.96050739     0.04500
O2372       O  0.79085855  0.25267561  0.88499819    -0.79900
O2373       O  0.75145600  0.20268027  0.84090596    -0.79900
O2374       O  0.73386874  0.23275427  0.90464103    -0.79900
O2375       O  0.76928139  0.26571864  0.81750921    -0.79900
O2376       O  0.75338215  0.20527318  0.88114496    -0.80000
O2377       O  0.79425417  0.24842679  0.84368000    -0.79900
O2378       O  0.72912619  0.22545299  0.81612802    -0.79900
O2379       O  0.76105074  0.27354299  0.90636000    -0.79900
C2380       C  0.78578880  0.26115907  0.90294005     1.09800
C2381       C  0.74422599  0.20335554  0.82259574     1.09700
C2382       C  0.74672345  0.20892784  0.89939003     1.09800
C2383       C  0.79245261  0.25324849  0.82490798     1.09700
O2384       O  0.77229520  0.30829155  0.83993190    -0.79900
O2385       O  0.69090654  0.22237302  0.88266254    -0.80000
O2386       O  0.71873644  0.30771042  0.88287810    -0.79900
O2387       O  0.68622129  0.26638329  0.83501646    -0.79900
O2388       O  0.68914048  0.21966821  0.84114986    -0.79900
O2389       O  0.76491118  0.31252436  0.88075014    -0.79900
O2390       O  0.72579631  0.30832774  0.83538918    -0.79900
O2391       O  0.68868407  0.26873494  0.89016340    -0.79900
Co2392     Co  0.77785591  0.27802503  0.86196001     1.51500
Co2393     Co  0.72309678  0.21546357  0.86110905     1.51700
Co2394     Co  0.72904846  0.26737641  0.88571776     1.51600
Co2395     Co  0.72784280  0.26649838  0.82822068     1.51500
O2396       O  0.73924715  0.25654140  0.85796506    -1.41800
C2397       C  0.74872172  0.32160779  0.83465328     1.09700
C2398       C  0.67854020  0.24449888  0.89147562     1.09800
C2399       C  0.73975771  0.32259880  0.88603716     1.09800
C2400       C  0.67456623  0.24231377  0.83501799     1.09700
O2401       O  0.79236510  0.24573671  0.15303142    -0.79900
O2402       O  0.74591301  0.19888915  0.11987891    -0.79900
O2403       O  0.72883033  0.22039655  0.18570020    -0.79900
O2404       O  0.77888879  0.25174925  0.10936893    -0.79900
O2405       O  0.74487431  0.19442621  0.16003947    -0.80000
O2406       O  0.80170475  0.28655218  0.12437431    -0.79900
O2407       O  0.72843763  0.22906521  0.09769503    -0.79900
O2408       O  0.77094165  0.26021487  0.18135021    -0.79900
C2409       C  0.79333051  0.24988186  0.17200822     1.09800
C2410       C  0.74018983  0.20452105  0.10164235     1.09700
C2411       C  0.73950063  0.19642952  0.17865442     1.09800
C2412       C  0.80120161  0.26718359  0.11074986     1.09700
O2413       O  0.74609151  0.30646724  0.11921579    -0.79900
O2414       O  0.68488629  0.21626996  0.16105574    -0.80000
O2415       O  0.72587029  0.30294022  0.16645342    -0.79900
O2416       O  0.69396755  0.27234563  0.11825137    -0.79900
O2417       O  0.68581968  0.22573581  0.12005553    -0.79900
O2418       O  0.77061165  0.30427042  0.15751965    -0.79900
O2419       O  0.73576495  0.28348586  0.09117895    -0.79900
O2420       O  0.68605066  0.26224788  0.16944711    -0.79900
Co2421     Co  0.76800909  0.27310810  0.13645589     1.51500
Co2422     Co  0.71682258  0.21089990  0.14035992     1.51700
Co2423     Co  0.72818079  0.26128378  0.17385567     1.51600
Co2424     Co  0.73542645  0.26293285  0.11561171     1.51500
O2425       O  0.73440946  0.24970506  0.14435497    -1.41800
C2426       C  0.74002932  0.30707509  0.09996444     1.09700
C2427       C  0.67294083  0.23904056  0.16902411     1.09800
C2428       C  0.74841225  0.31675301  0.16537314     1.09800
C2429       C  0.67793521  0.25168953  0.11461675     1.09700
O2430       O  0.56695587  0.02383242  0.65885553    -0.79900
O2431       O  0.97862140  0.44545449  0.62027246    -0.79900
O2432       O  0.51976027  0.44037249  0.66987106    -0.79900
O2433       O  0.54035823  0.48971006  0.59144230    -0.79900
O2434       O  0.97360615  0.44186716  0.66128463    -0.80000
O2435       O  0.56655962  0.00066409  0.62013028    -0.79900
O2436       O  0.52560738  0.44805274  0.61784039    -0.79900
O2437       O  0.56197278  0.47914322  0.66762005    -0.79900
C2438       C  0.57824853  0.00091860  0.66666480     1.09800
C2439       C  0.00304435  0.43497653  0.61396102     1.09700
C2440       C  0.99612044  0.42807824  0.66842925     1.09800
C2441       C  0.56690098  0.99363954  0.60100788     1.09700
O2442       O  0.55127720  0.05740609  0.62675442    -0.79900
O2443       O  0.95540227  0.50418504  0.66224672    -0.80000
O2444       O  0.52279032  0.02437829  0.68343117    -0.79900
O2445       O  0.98678538  0.99197148  0.59885105    -0.79900
O2446       O  0.95764118  0.50727556  0.62225641    -0.79900
O2447       O  0.51008750  0.04912288  0.65557105    -0.79900
O2448       O  0.51691104  0.03606376  0.61008349    -0.79900
O2449       O  0.98212729  0.98290578  0.68696687    -0.79900
Co2450     Co  0.53530167  0.02408111  0.63804829     1.51500
Co2451     Co  0.96842102  0.47603494  0.64168898     1.51700
Co2452     Co  0.52227367  0.98209606  0.67450472     1.51600
Co2453     Co  0.52278531  0.99157841  0.61605265     1.51500
O2454       O  0.51027936  0.99136402  0.64506238    -1.41800
C2455       C  0.53351592  0.05738083  0.61211429     1.09700
C2456       C  0.95653140  0.49558629  0.68020481     1.09800
C2457       C  0.51337455  0.04785344  0.67468484     1.09800
C2458       C  0.96152980  0.50176990  0.60382658     1.09700
O2459       O  0.49978182  0.04518618  0.34687371    -0.79900
O2460       O  0.95476426  0.50436030  0.38127703    -0.79900
O2461       O  0.97177792  0.48427568  0.31518931    -0.79900
O2462       O  0.50958300  0.03275667  0.39129201    -0.79900
O2463       O  0.94870103  0.50295982  0.34132165    -0.80000
O2464       O  0.54209408  0.05582580  0.37460840    -0.79900
O2465       O  0.98420749  0.48489657  0.40326411    -0.79900
O2466       O  0.51347586  0.02325023  0.31858281    -0.79900
C2467       C  0.50256193  0.04568312  0.32783069     1.09800
C2468       C  0.96048853  0.49839211  0.39947569     1.09700
C2469       C  0.94900092  0.49632921  0.32291547     1.09800
C2470       C  0.52446733  0.05540700  0.38911195     1.09700
O2471       O  0.56186697  0.00040531  0.38061396    -0.79900
O2472       O  0.96615563  0.44101609  0.34016743    -0.80000
O2473       O  0.55476437  0.47662714  0.33320248    -0.79900
O2474       O  0.52340178  0.44636949  0.38250823    -0.79900
O2475       O  0.97618681  0.44239785  0.38104385    -0.79900
O2476       O  0.55813867  0.02220308  0.34187377    -0.79900
O2477       O  0.53939775  0.48790336  0.40897510    -0.79900
O2478       O  0.51155436  0.43894978  0.33062152    -0.79900
Co2479     Co  0.52783850  0.02152562  0.36334458     1.51500
Co2480     Co  0.96354152  0.47395320  0.36076196     1.51700
Co2481     Co  0.51297923  0.48123567  0.32645763     1.51600
Co2482     Co  0.51773334  0.48860302  0.38497582     1.51500
O2483       O  0.50334901  0.48823526  0.35636614    -1.41800
C2484       C  0.56331919  0.99465948  0.39988461     1.09700
C2485       C  0.98765797  0.42737583  0.33186651     1.09800
C2486       C  0.57004544  0.99890793  0.33494040     1.09800
C2487       C  0.00137550  0.43249452  0.38663990     1.09700
C2488       C  0.02100304  0.27216139  0.48978431     0.02500
C2489       C  0.02465866  0.27216647  0.51119696     0.02500
C2490       C  0.02790704  0.24538652  0.52131961    -0.18000
C2491       C  0.02594307  0.21903134  0.51100012     0.02500
C2492       C  0.02018128  0.21910822  0.49003950     0.02500
C2493       C  0.01782610  0.24562039  0.47972113    -0.18000
H2494       H  0.01344770  0.24555217  0.46353584     0.04500
H2495       H  0.03099198  0.24505837  0.53765277     0.04500
C2496       C  0.78904504  0.50606333  0.51171093     0.02500
C2497       C  0.79021858  0.50644978  0.49045604     0.02500
C2498       C  0.76505481  0.50371532  0.47902957    -0.18000
C2499       C  0.73853072  0.50064392  0.48849657     0.02500
C2500       C  0.73713302  0.50079149  0.50993209     0.02500
C2501       C  0.76257904  0.50339709  0.52130376    -0.18000
H2502       H  0.76183158  0.50310217  0.53773408     0.04500
H2503       H  0.76617777  0.50369008  0.46260472     0.04500
C2504       C  0.48658136  0.23815403  0.24949544    -0.02200
C2505       C  0.50682706  0.31310259  0.27509803    -0.22200
C2506       C  0.98554110  0.31653576  0.28962676     0.09800
C2507       C  0.96608318  0.29455803  0.29179583     0.10200
C2508       C  0.96820568  0.27004812  0.27897524    -0.17100
C2509       C  0.98913569  0.26629933  0.26336332    -0.27600
C2510       C  0.51000510  0.28837402  0.26248918     0.18500
C2511       C  0.98428360  0.34355705  0.30231798     0.12500
C2512       C  0.94305462  0.29688203  0.30775185    -0.11900
H2513       H  0.95242416  0.25385956  0.28072693     0.12700
C2514       C  0.53720066  0.28749532  0.24984064    -0.22700
H2515       H  0.52183499  0.33017697  0.27381607     0.08400
C2516       C  0.50559443  0.34889501  0.31695857     0.04700
C2517       C  0.50556053  0.37610791  0.32672489    -0.20000
C2518       C  0.98454726  0.39827527  0.32241378    -0.12300
C2519       C  0.96246058  0.39264970  0.30804341     0.13400
C2520       C  0.96259781  0.36536619  0.29836813    -0.22700
C2521       C  0.52869939  0.32577545  0.32232054    -0.05800
H2522       H  0.52244059  0.38018806  0.33768501     0.15000
C2523       C  0.93934201  0.41511266  0.30141361    -0.15900
H2524       H  0.94625755  0.36149798  0.28695283     0.09300
H2525       H  0.55372312  0.30108403  0.25675046     0.07100
H2526       H  0.53264418  0.29704737  0.23470915     0.08300
H2527       H  0.54847255  0.26583296  0.24896412     0.07400
H2528       H  0.92830820  0.31629830  0.30490075     0.02300
H2529       H  0.95327014  0.29880132  0.32296008     0.02700
H2530       H  0.92987651  0.27754438  0.30779982     0.06200
H2531       H  0.54327315  0.33307200  0.33454067     0.05200
H2532       H  0.54212325  0.32017175  0.30888490    -0.00500
H2533       H  0.51849768  0.30604329  0.32767363     0.00900
H2534       H  0.94041791  0.41814797  0.28474415     0.04600
H2535       H  0.94140379  0.43661114  0.30841009     0.06500
H2536       H  0.91774861  0.40755940  0.30521252     0.07400
C2537       C  0.97411587  0.12304926  0.31428404    -0.22200
C2538       C  0.48927662  0.12812652  0.29645710     0.09800
C2539       C  0.50751916  0.10543418  0.28838320     0.10200
C2540       C  0.51050498  0.07851532  0.29847260    -0.17100
C2541       C  0.49586114  0.07358896  0.31664372    -0.27600
C2542       C  0.97691792  0.09614857  0.32439093     0.18500
C2543       C  0.48658958  0.15750592  0.28687191     0.12500
C2544       C  0.52384914  0.10965144  0.26907348    -0.11900
H2545       H  0.52510826  0.06151911  0.29240581     0.12700
C2546       C  0.95890504  0.09222262  0.34299501    -0.22700
H2547       H  0.95995264  0.14044151  0.32032133     0.08400
C2548       C  0.96228725  0.16731495  0.27603554     0.04700
C2549       C  0.96179711  0.19429409  0.26611341    -0.20000
C2550       C  0.48616233  0.21136461  0.26491730    -0.12300
C2551       C  0.50911511  0.20291710  0.27899268     0.13400
C2552       C  0.50908142  0.17611312  0.28921787    -0.22700
C2553       C  0.93659442  0.14887621  0.27416326    -0.05800
H2554       H  0.94168067  0.20130697  0.25884650     0.15000
C2555       C  0.53504709  0.22012317  0.28345251    -0.15900
H2556       H  0.52732004  0.16926517  0.29885396     0.09300
H2557       H  0.94343163  0.11115014  0.34557552     0.07100
H2558       H  0.97296717  0.09001025  0.35668151     0.08300
H2559       H  0.94617910  0.07270601  0.34118032     0.07400
H2560       H  0.53896176  0.12723969  0.27110602     0.02300
H2561       H  0.50839929  0.11556811  0.25657429     0.02700
H2562       H  0.53669118  0.08961909  0.26457934     0.06200
H2563       H  0.91927461  0.15923649  0.26440020     0.05200
H2564       H  0.92734460  0.14535593  0.28934590    -0.00500
H2565       H  0.94338285  0.12756108  0.26733070     0.00900
H2566       H  0.53533635  0.22613167  0.29976475     0.04600
H2567       H  0.53556728  0.23998407  0.27467721     0.06500
H2568       H  0.55515804  0.20680812  0.27999763     0.07400
C2569       C  0.99293656  0.16242293  0.45384087    -0.22200
C2570       C  0.51806182  0.14526722  0.45071501     0.09800
C2571       C  0.54322066  0.15038047  0.46208835     0.10200
C2572       C  0.54289074  0.17386758  0.47566996    -0.17100
C2573       C  0.01796145  0.19194816  0.47818939    -0.27600
C2574       C  0.99235876  0.18569796  0.46758187     0.18500
C2575       C  0.51815007  0.12263696  0.43473305     0.12500
C2576       C  0.57045688  0.13126953  0.45968066    -0.11900
H2577       H  0.56251308  0.17866504  0.48375588     0.12700
C2578       C  0.96413423  0.20310331  0.47039752    -0.22700
H2579       H  0.97358730  0.15809619  0.44524449     0.08400
C2580       C  0.00715250  0.09507918  0.43819553     0.04700
C2581       C  0.00839213  0.07422341  0.42266048    -0.20000
C2582       C  0.52105821  0.07993514  0.40381624    -0.12300
C2583       C  0.53169603  0.10772751  0.40033143     0.13400
C2584       C  0.52993536  0.12868369  0.41584478    -0.22700
C2585       C  0.99447237  0.08781535  0.45836913    -0.05800
H2586       H  0.00005728  0.05319522  0.42553057     0.15000
C2587       C  0.54467816  0.11583075  0.38040587    -0.15900
H2588       H  0.53821447  0.14986910  0.41337891     0.09300
H2589       H  0.94729343  0.18840785  0.47508809     0.07100
H2590       H  0.95736382  0.21364216  0.45586021     0.08700
H2591       H  0.96534046  0.22013056  0.48221029     0.07400
H2592       H  0.57819172  0.13235821  0.44384605     0.02300
H2593       H  0.56607828  0.10846886  0.46332522     0.02700
H2594       H  0.58800046  0.13804284  0.46993411     0.06200
H2595       H  0.98701306  0.06537132  0.45859481     0.05200
H2596       H  0.97566315  0.10305558  0.46163965    -0.00500
H2597       H  0.51068225  0.08998266  0.47043503     0.00900
H2598       H  0.55002717  0.13898095  0.38013258     0.04600
H2599       H  0.52908072  0.11243887  0.36784784     0.06500
H2600       H  0.56506898  0.10258030  0.37781133     0.07400
C2601       C  0.53632453  0.32512208  0.44771137    -0.22200
C2602       C  0.01263420  0.34529758  0.44949130     0.09800
C2603       C  0.99327678  0.34319396  0.46573416     0.10200
C2604       C  0.99715688  0.31988237  0.47940108    -0.17100
C2605       C  0.01999738  0.29877473  0.47709527    -0.27600
C2606       C  0.54027167  0.30186820  0.46124010     0.18500
C2607       C  0.00893121  0.36817369  0.43380581     0.12500
C2608       C  0.96852118  0.36540985  0.46848912    -0.11900
H2609       H  0.98177325  0.31755620  0.49146992     0.12700
C2610       C  0.56593405  0.28054846  0.45826236    -0.22700
H2611       H  0.55129637  0.32720919  0.43534172     0.08400
C2612       C  0.52615546  0.39251411  0.43405495     0.04700
C2613       C  0.52384213  0.41230060  0.41797602    -0.20000
C2614       C  0.00447058  0.40870524  0.40171738    -0.12300
C2615       C  0.98724650  0.38439685  0.40144928     0.13400
C2616       C  0.98991919  0.36424195  0.41744965    -0.22700
C2617       C  0.54641582  0.39778046  0.45152770    -0.05800
H2618       H  0.53665282  0.43118485  0.41850064     0.15000
C2619       C  0.96671677  0.37917295  0.38414687    -0.15900
H2620       H  0.97728186  0.34521033  0.41717731     0.09300
H2621       H  0.58033346  0.28771718  0.44612630     0.07100
H2622       H  0.55881238  0.25896534  0.45371443     0.08300
H2623       H  0.57900601  0.27830130  0.47237617     0.07400
H2624       H  0.95403698  0.36553697  0.45498051     0.02300
H2625       H  0.97699290  0.38727218  0.47043132     0.02700
H2626       H  0.95555869  0.36072398  0.48204143     0.06200
H2627       H  0.55764157  0.41819926  0.44959046     0.05200
H2628       H  0.56309763  0.37958772  0.45273973    -0.00500
H2629       H  0.53405966  0.39945556  0.46586216     0.00900
H2630       H  0.97863288  0.37850125  0.36961810     0.04600
H2631       H  0.94929183  0.39669714  0.38356317     0.06500
H2632       H  0.95631002  0.35825007  0.38584526     0.07400
C2633       C  0.67820262  0.46943105  0.45753776    -0.22200
C2634       C  0.66887742  0.99653087  0.44724518     0.09800
C2635       C  0.68374030  0.02226828  0.44843839     0.10200
C2636       C  0.70653879  0.02404398  0.46239822    -0.17100
C2637       C  0.71304459  0.49782446  0.47525122    -0.27600
C2638       C  0.70087974  0.47086203  0.47166668     0.18500
C2639       C  0.64250836  0.99507092  0.43455757     0.12500
C2640       C  0.67518315  0.04803322  0.43523906    -0.11900
H2641       H  0.71815252  0.04374601  0.46324899     0.12700
C2642       C  0.71165264  0.44318930  0.48204287    -0.22700
H2643       H  0.66821177  0.44902817  0.45507168     0.08400
C2644       C  0.64306075  0.98582745  0.41412555     0.04700
C2645       C  0.61703523  0.98619782  0.40286810    -0.20000
C2646       C  0.59057608  0.99506745  0.41182408    -0.12300
C2647       C  0.58947066  0.50100520  0.43278712     0.13400
C2648       C  0.61552734  0.50046193  0.44356022    -0.22700
C2649       C  0.67099275  0.97540039  0.40435518    -0.05800
H2650       H  0.61728446  0.97910550  0.38718566     0.15000
C2651       C  0.56240116  0.51147972  0.44381534    -0.15900
H2652       H  0.61568842  0.50670306  0.45943507     0.09300
H2653       H  0.71863024  0.42681337  0.47045065     0.07100
H2654       H  0.69395275  0.43460814  0.49105917     0.08300
H2655       H  0.73029963  0.44612644  0.49231950     0.07400
H2656       H  0.65247491  0.05562865  0.43831478     0.02300
H2657       H  0.67716338  0.04188248  0.41901679     0.02700
H2658       H  0.68909369  0.06643165  0.43812592     0.06200
H2659       H  0.66762238  0.96880064  0.38833387     0.05200
H2660       H  0.68067949  0.95636989  0.41278329    -0.00500
H2661       H  0.68637159  0.99293870  0.40459080     0.00900
H2662       H  0.56715989  0.51912474  0.45941522     0.04600
H2663       H  0.54756721  0.49360731  0.44527700     0.06500
H2664       H  0.55157407  0.52999698  0.43551307     0.07400
C2665       C  0.92279064  0.00191205  0.45026756    -0.22200
C2666       C  0.89300410  0.51169935  0.44320105     0.09800
C2667       C  0.88793400  0.51827363  0.42258633     0.10200
C2668       C  0.91085666  0.51523352  0.40900902    -0.17100
C2669       C  0.93871027  0.50516131  0.41540323    -0.27600
C2670       C  0.94557403  0.99797207  0.43647319     0.18500
C2671       C  0.86866002  0.51023538  0.45732265     0.12500
C2672       C  0.85806779  0.52718177  0.41469969    -0.11900
H2673       H  0.90652703  0.51955504  0.39308663     0.12700
C2674       C  0.97510522  0.98823921  0.44457434    -0.22700
H2675       H  0.92655496  0.99748940  0.46624373     0.08400
C2676       C  0.85811472  0.48322741  0.46268238     0.04700
C2677       C  0.83277144  0.48274165  0.47398369    -0.20000
C2678       C  0.81773565  0.50858015  0.47979432    -0.12300
C2679       C  0.83206685  0.03715561  0.47576789     0.13400
C2680       C  0.85776368  0.03630634  0.46475496    -0.22700
C2681       C  0.87293745  0.45497623  0.45583293    -0.05800
H2682       H  0.82419815  0.46214821  0.47788845     0.15000
C2683       C  0.81839494  0.06642915  0.48150696    -0.15900
H2684       H  0.86714476  0.05643706  0.46066048     0.09300
H2685       H  0.98168619  0.96634112  0.43861188     0.07100
H2686       H  0.97542699  0.98678526  0.46138459     0.08300
H2687       H  0.99108387  0.00401544  0.44017095     0.07400
H2688       H  0.85014606  0.54783255  0.42194729     0.02300
H2689       H  0.84302445  0.51001817  0.41810535     0.02700
H2690       H  0.85783661  0.53061406  0.39803369     0.06200
H2691       H  0.86128222  0.43597715  0.46091883     0.05200
H2692       H  0.89519175  0.45279000  0.46222263    -0.00500
H2693       H  0.87392609  0.45437733  0.43902030     0.00900
H2694       H  0.83350784  0.07798494  0.49139233     0.04600
H2695       H  0.79776047  0.06500289  0.48968247     0.06500
H2696       H  0.81385193  0.07946910  0.46759101     0.07400
C2697       C  0.62157750  0.97231265  0.56036616    -0.22200
C2698       C  0.64199817  0.99301302  0.56370057     0.09800
C2699       C  0.63858918  0.50694621  0.58069066     0.10200
C2700       C  0.61445295  0.50605017  0.59336379    -0.17100
C2701       C  0.59417857  0.99030805  0.58958086    -0.27600
C2702       C  0.59771557  0.97057474  0.57311937     0.18500
C2703       C  0.66577425  0.99501387  0.54902483     0.12500
C2704       C  0.66314735  0.52524193  0.58672922    -0.11900
H2705       H  0.61331455  0.51942461  0.60690565     0.12700
C2706       C  0.57676198  0.94735667  0.56899121    -0.22700
H2707       H  0.62406507  0.95782992  0.54744684     0.08400
C2708       C  0.68430751  0.46892954  0.54550500     0.04700
C2709       C  0.70728844  0.47193842  0.53214496    -0.20000
C2710       C  0.70998851  0.49765297  0.52117511    -0.12300
C2711       C  0.68781571  0.02220441  0.52204907     0.13400
C2712       C  0.66481347  0.01819285  0.53525666    -0.22700
C2713       C  0.68294076  0.44136342  0.55756306    -0.05800
H2714       H  0.72382263  0.45445333  0.53070256     0.15000
C2715       C  0.68652829  0.04943262  0.50944446    -0.15900
H2716       H  0.64650382  0.03394075  0.53542513     0.09300
H2717       H  0.57406688  0.93432707  0.58290517     0.07100
H2718       H  0.58456776  0.93227416  0.55680629     0.08300
H2719       H  0.55550909  0.95720245  0.56394398     0.07400
H2720       H  0.66566007  0.54252288  0.57532840     0.02300
H2721       H  0.68350969  0.51137284  0.58778365     0.02700
H2722       H  0.65939223  0.53587278  0.60168101     0.06200
H2723       H  0.70156244  0.42583013  0.55434720     0.05200
H2724       H  0.66288007  0.43049743  0.55370018    -0.00500
H2725       H  0.68321451  0.44646813  0.57402363     0.00900
H2726       H  0.66819548  0.04902097  0.49849744     0.04600
H2727       H  0.70663221  0.05225973  0.50095913     0.06500
H2728       H  0.68313273  0.06866410  0.51948537     0.07400
C2729       C  0.91811181  0.51257434  0.55475997    -0.22200
C2730       C  0.89000349  0.51219343  0.56227989     0.09800
C2731       C  0.88726356  0.01529784  0.58394051     0.10200
C2732       C  0.91125835  0.01277779  0.59695971    -0.17100
C2733       C  0.93770935  0.50764407  0.58903467    -0.27600
C2734       C  0.94217598  0.51027090  0.56789237     0.18500
C2735       C  0.86549855  0.51130984  0.54796356     0.12500
C2736       C  0.85732027  0.01432919  0.59255430    -0.11900
H2737       H  0.90775741  0.00994001  0.61304049     0.12700
C2738       C  0.97199031  0.51088819  0.55903608    -0.22700
H2739       H  0.92118062  0.51394308  0.53852287     0.08400
C2740       C  0.85064415  0.04241926  0.54280883     0.04700
C2741       C  0.82556294  0.03996245  0.53099872    -0.20000
C2742       C  0.81551553  0.50724787  0.52410145    -0.12300
C2743       C  0.83160371  0.48170836  0.53010810     0.13400
C2744       C  0.85647321  0.48409876  0.54202265    -0.22700
C2745       C  0.85968535  0.07195664  0.54911936    -0.05800
H2746       H  0.81261326  0.05932425  0.52667816     0.15000
C2747       C  0.82303333  0.45171010  0.52440888    -0.15900
H2748       H  0.86860920  0.46458904  0.54709179     0.09300
H2749       H  0.97112417  0.51510983  0.54246146     0.07100
H2750       H  0.98410989  0.48967826  0.56133776     0.08300
H2751       H  0.98381996  0.52842530  0.56633425     0.07400
H2752       H  0.84648141  0.99545276  0.58619146     0.02300
H2753       H  0.84436136  0.03457271  0.58866099     0.02700
H2754       H  0.85783403  0.01220980  0.60932822     0.06200
H2755       H  0.84456182  0.08955075  0.54316382     0.05200
H2756       H  0.88155743  0.07536324  0.54318778    -0.00500
H2757       H  0.86020301  0.07365397  0.56590338     0.00900
H2758       H  0.84070098  0.44041580  0.51565538     0.04600
H2759       H  0.80304476  0.45186232  0.51503879     0.06500
H2760       H  0.81937664  0.43912301  0.53838067     0.07400
C2761       C  0.55392013  0.15745251  0.54489257    -0.22200
C2762       C  0.52794794  0.14587850  0.55056801     0.09800
C2763       C  0.00179388  0.15668561  0.54200121     0.10200
C2764       C  0.00189090  0.17965099  0.52812312    -0.17100
C2765       C  0.02774019  0.19204565  0.52300350    -0.27600
C2766       C  0.55410835  0.18066536  0.53127759     0.18500
C2767       C  0.52890742  0.12301771  0.56619049     0.12500
C2768       C  0.97350907  0.14500197  0.54816937    -0.11900
H2769       H  0.98163828  0.18881686  0.52187965     0.12700
C2770       C  0.58279361  0.19247749  0.52621379    -0.22700
H2771       H  0.57412028  0.14869083  0.55147169     0.08400
C2772       C  0.03110455  0.09311233  0.56088016     0.04700
C2773       C  0.03227819  0.07231662  0.57634060    -0.20000
C2774       C  0.53195764  0.08076701  0.59691805    -0.12300
C2775       C  0.53083169  0.11051638  0.60214572     0.13400
C2776       C  0.52901787  0.13134588  0.58664771    -0.22700
C2777       C  0.03243309  0.08346303  0.53904190    -0.05800
H2778       H  0.03398532  0.04945714  0.57240643     0.15000
C2779       C  0.53126446  0.12040338  0.62390341    -0.15900
H2780       H  0.52797578  0.15425371  0.59044701     0.09300
H2781       H  0.59721083  0.17486914  0.51966682     0.07100
H2782       H  0.59299757  0.20067110  0.54024095     0.08300
H2783       H  0.58089743  0.21043053  0.51505802     0.07400
H2784       H  0.97051262  0.14794822  0.56474388     0.02300
H2785       H  0.97334276  0.12155356  0.54445462     0.02700
H2786       H  0.95487783  0.15637690  0.54024099     0.06200
H2787       H  0.03409169  0.05942101  0.53766910     0.05200
H2788       H  0.05164250  0.09205901  0.53174879    -0.00500
H2789       H  0.01269074  0.09166067  0.53074960     0.00900
H2790       H  0.55243097  0.11367096  0.63090070     0.04600
H2791       H  0.51359214  0.11079849  0.63238110     0.06500
H2792       H  0.52837297  0.14440450  0.62519458     0.07400
C2793       C  0.03686387  0.34399644  0.53855135    -0.22200
C2794       C  0.01538823  0.34367479  0.55342760     0.09800
C2795       C  0.99638278  0.32085303  0.55345127     0.10200
C2796       C  0.99913465  0.29921525  0.53856391    -0.17100
C2797       C  0.02135966  0.29864245  0.52419749    -0.27600
C2798       C  0.04082763  0.32118794  0.52444162     0.18500
C2799       C  0.01303887  0.36708403  0.56900815     0.12500
C2800       C  0.97398996  0.31839686  0.56971569    -0.11900
H2801       H  0.98441976  0.28178961  0.53860945     0.12700
C2802       C  0.56674771  0.32147657  0.51104825    -0.22700
H2803       H  0.55108850  0.36189948  0.53845549     0.08400
C2804       C  0.53429544  0.37043820  0.58412968     0.04700
C2805       C  0.53003722  0.39208760  0.59904093    -0.20000
C2806       C  0.00471081  0.41014812  0.59948902    -0.12300
C2807       C  0.98302474  0.40633979  0.58448157     0.13400
C2808       C  0.98785839  0.38535093  0.56928625    -0.22700
C2809       C  0.56145208  0.35083202  0.58477436    -0.05800
H2810       H  0.54680564  0.39502320  0.61030689     0.15000
C2811       C  0.95500293  0.42466298  0.58374091    -0.15900
H2812       H  0.97169544  0.38295652  0.55750091     0.09300
H2813       H  0.56999229  0.30112908  0.50233093     0.07100
H2814       H  0.06464239  0.33970336  0.50038787     0.08300
H2815       H  0.58645549  0.32358511  0.52052571     0.07400
H2816       H  0.95756208  0.33680129  0.56877846     0.02300
H2817       H  0.48448412  0.31830098  0.58487839     0.02700
H2818       H  0.96243027  0.29807987  0.56818239     0.06200
H2819       H  0.57529779  0.35560146  0.59807186     0.05200
H2820       H  0.57433115  0.35380441  0.57093760    -0.00500
H2821       H  0.55576174  0.32784374  0.58580026     0.00900
H2822       H  0.94090098  0.41847345  0.57091518     0.04600
H2823       H  0.95944587  0.44772302  0.58161361     0.06500
H2824       H  0.94273271  0.42189145  0.59789616     0.07400
C2825       C  0.53873731  0.25070683  0.20384596    -0.22200
C2826       C  0.56170363  0.23065682  0.20811316     0.09800
C2827       C  0.55904223  0.21075900  0.22393955     0.10200
C2828       C  0.53371585  0.21182966  0.23543557    -0.17100
C2829       C  0.51162479  0.23439331  0.23337576    -0.27600
C2830       C  0.51371117  0.25286700  0.21589447     0.18500
C2831       C  0.58941964  0.23290775  0.19725552     0.12500
C2832       C  0.58360597  0.18924639  0.22956028    -0.11900
H2833       H  0.53207883  0.19471269  0.24617673     0.12700
C2834       C  0.49092542  0.27615715  0.20984773    -0.22700
H2835       H  0.54094957  0.26555173  0.19132992     0.08400
C2836       C  0.59797708  0.21418133  0.18120411     0.04700
C2837       C  0.62554959  0.21613419  0.17274017    -0.20000
C2838       C  0.64401347  0.23784630  0.17881681    -0.12300
C2839       C  0.63479614  0.25711737  0.19467198     0.13400
C2840       C  0.60782456  0.25412494  0.20372017    -0.22700
C2841       C  0.57769756  0.19288201  0.17253455    -0.05800
H2842       H  0.63249439  0.20074864  0.16110123     0.15000
C2843       C  0.65341408  0.28030508  0.20282011    -0.15900
H2844       H  0.60098659  0.26840423  0.21607895     0.09300
H2845       H  0.47168751  0.26617156  0.20342984     0.07100
H2846       H  0.49861068  0.29051166  0.19779782     0.08300
H2847       H  0.48490653  0.29037540  0.22286613     0.07400
H2848       H  0.60305833  0.20104563  0.23360468     0.02300
H2849       H  0.58883385  0.17439347  0.21673029     0.02700
H2850       H  0.57829809  0.17577138  0.24279010     0.06200
H2851       H  0.58760548  0.18030708  0.15973524     0.05200
H2852       H  0.55780122  0.20482947  0.16677804    -0.00500
H2853       H  0.57161628  0.17728309  0.18425349     0.00900
H2854       H  0.64328671  0.29203665  0.21590730     0.04600
H2855       H  0.65663905  0.29664648  0.19088218     0.06500
H2856       H  0.67458288  0.27037540  0.20806042     0.07400
C2857       C  0.92428861  0.21993919  0.21135406    -0.22200
C2858       C  0.90478071  0.24389083  0.21349537     0.09800
C2859       C  0.91175072  0.26653641  0.22659340     0.10200
C2860       C  0.93785173  0.26443884  0.23765448    -0.17100
C2861       C  0.95769083  0.23969170  0.23663058    -0.27600
C2862       C  0.95031144  0.21724899  0.22253175     0.18500
C2863       C  0.87666666  0.24437537  0.20237497     0.12500
C2864       C  0.89177641  0.29337998  0.22858541    -0.11900
H2865       H  0.94270168  0.28323831  0.24646574     0.12700
C2866       C  0.96826395  0.18936084  0.21884523    -0.22700
H2867       H  0.91876488  0.20265089  0.20109273     0.08400
C2868       C  0.87427696  0.25126542  0.18157658     0.04700
C2869       C  0.84697923  0.25199166  0.17200236    -0.20000
C2870       C  0.82183175  0.24620723  0.18274977    -0.12300
C2871       C  0.82458367  0.23862124  0.20350514     0.13400
C2872       C  0.85190187  0.23776177  0.21300196    -0.22700
C2873       C  0.90041366  0.25848969  0.16962327    -0.05800
H2874       H  0.84520783  0.25792761  0.15613013     0.15000
C2875       C  0.79913078  0.23014000  0.21553890    -0.15900
H2876       H  0.85401386  0.23200216  0.22889737     0.09300
H2877       H  0.97615035  0.18895049  0.20300009     0.07100
H2878       H  0.95469142  0.17058967  0.22108604     0.08300
H2879       H  0.98689722  0.18574152  0.22909683     0.07400
H2880       H  0.87056973  0.28747306  0.23448076     0.02300
H2881       H  0.88852341  0.30384446  0.21352788     0.02700
H2882       H  0.90058586  0.30950695  0.23915533     0.06200
H2883       H  0.89472221  0.26388916  0.15361571     0.05200
H2884       H  0.91644287  0.23964742  0.16961016    -0.00500
H2885       H  0.91041592  0.27747561  0.17656069     0.00900
H2886       H  0.80553967  0.22277579  0.23104750     0.04600
H2887       H  0.78920618  0.21193575  0.20762173     0.06500
H2888       H  0.78315095  0.24883472  0.21713969     0.07400
C2889       C  0.73975517  0.16131281  0.05215642    -0.22200
C2890       C  0.75390501  0.13523658  0.05852194     0.09800
C2891       C  0.76569312  0.13290083  0.07823222     0.10200
C2892       C  0.76196180  0.15644607  0.09152410    -0.17100
C2893       C  0.74620555  0.18217137  0.08574868    -0.27600
C2894       C  0.73548660  0.18485763  0.06552710     0.18500
C2895       C  0.75332716  0.10958432  0.04518940     0.12500
C2896       C  0.78113211  0.10513026  0.08552999    -0.11900
H2897       H  0.77065689  0.15425985  0.10679217     0.12700
C2898       C  0.71863742  0.21172229  0.05795868    -0.22700
H2899       H  0.73089140  0.16270353  0.03688826     0.08400
C2900       C  0.72813027  0.09399792  0.04345869     0.04700
C2901       C  0.72878914  0.06869222  0.03175513    -0.20000
C2902       C  0.75406427  0.05857288  0.02191320    -0.12300
C2903       C  0.77946035  0.07389015  0.02389279     0.13400
C2904       C  0.77864284  0.09956147  0.03532634    -0.22700
C2905       C  0.70073200  0.10372670  0.05427728    -0.05800
H2906       H  0.70944943  0.05671710  0.03017190     0.15000
C2907       C  0.80780338  0.06334730  0.01472738    -0.15900
H2908       H  0.79802724  0.11143913  0.03700298     0.09300
H2909       H  0.69862823  0.21561310  0.06692628     0.07100
H2910       H  0.71203218  0.20960226  0.04181039     0.08300
H2911       H  0.73210079  0.23077389  0.05912432     0.07400
H2912       H  0.80045885  0.09996201  0.07609972     0.02300
H2913       H  0.76641605  0.08703630  0.08444603     0.02700
H2914       H  0.78844856  0.10682121  0.10155574     0.06200
H2915       H  0.68333583  0.08855149  0.05163676     0.05200
H2916       H  0.69278017  0.12547779  0.04875753    -0.00500
H2917       H  0.70495851  0.10480619  0.07085614     0.00900
H2918       H  0.81465215  0.07951268  0.00358531     0.04600
H2919       H  0.80666719  0.04210711  0.00698953     0.06500
H2920       H  0.82451880  0.06070924  0.02686484     0.07400
C2921       C  0.73010980  0.38619070  0.08253446    -0.22200
C2922       C  0.73293885  0.38245642  0.06150590     0.09800
C2923       C  0.73861729  0.35451477  0.05340927     0.10200
C2924       C  0.74061966  0.33072528  0.06649359    -0.17100
C2925       C  0.73768218  0.33403957  0.08765106    -0.27600
C2926       C  0.73259251  0.36228227  0.09580076     0.18500
C2927       C  0.73182447  0.40813031  0.04816074     0.12500
C2928       C  0.74321581  0.34984105  0.03098224    -0.11900
H2929       H  0.74503684  0.30931182  0.06004215     0.12700
C2930       C  0.72934105  0.36742389  0.11823398    -0.22700
H2931       H  0.72619534  0.40793518  0.08855495     0.08400
C2932       C  0.70624283  0.41788355  0.03786502     0.04700
C2933       C  0.70692810  0.44150297  0.02452601    -0.20000
C2934       C  0.73261160  0.45541423  0.02141359    -0.12300
C2935       C  0.75831867  0.44519205  0.03149748     0.13400
C2936       C  0.75750879  0.42177046  0.04484732    -0.22700
C2937       C  0.67825263  0.40368842  0.04124742    -0.05800
H2938       H  0.68729301  0.44958995  0.01685706     0.15000
C2939       C  0.78705421  0.45815238  0.02830724    -0.15900
H2940       H  0.77717904  0.41377913  0.05253507     0.09300
H2941       H  0.72447078  0.39073715  0.12178050     0.07100
H2942       H  0.74970945  0.36045117  0.12628628     0.08300
H2943       H  0.71132529  0.35505157  0.12398151     0.07400
H2944       H  0.76192003  0.36186673  0.02595915     0.02300
H2945       H  0.72368746  0.35772916  0.02232170     0.02700
H2946       H  0.74769524  0.32653355  0.02723701     0.06200
H2947       H  0.66028047  0.41416644  0.03212593     0.05200
H2948       H  0.67238813  0.40539054  0.05750385    -0.00500
H2949       H  0.68052030  0.38042752  0.03690390     0.00900
H2950       H  0.79477477  0.46729550  0.04283546     0.04600
H2951       H  0.78619140  0.47555790  0.01673842     0.06500
H2952       H  0.80306682  0.44093664  0.02311757     0.07400
C2953       C  0.77876000  0.09126879  0.95332159    -0.22200
C2954       C  0.75627843  0.11276102  0.95487328     0.09800
C2955       C  0.73284917  0.10864926  0.96781831     0.10200
C2956       C  0.73230356  0.08283006  0.97885943    -0.17100
C2957       C  0.75455947  0.06106102  0.97710783    -0.27600
C2958       C  0.77824708  0.06537678  0.96431197     0.18500
C2959       C  0.75569183  0.13756531  0.94081675     0.12500
C2960       C  0.70805382  0.13112625  0.96949015    -0.11900
H2961       H  0.71403844  0.07921677  0.98846980     0.12700
C2962       C  0.80322697  0.04324148  0.96182211    -0.22700
H2963       H  0.79646360  0.09445225  0.94309819     0.08400
C2964       C  0.76748259  0.16415474  0.94591361     0.04700
C2965       C  0.76435554  0.18747744  0.93221236    -0.20000
C2966       C  0.75049166  0.18417530  0.91340901    -0.12300
C2967       C  0.73946688  0.15706425  0.90818677     0.13400
C2968       C  0.74212819  0.13421055  0.92204261    -0.22700
C2969       C  0.78335024  0.16771179  0.96569997    -0.05800
H2970       H  0.77293606  0.20816010  0.93606619     0.15000
C2971       C  0.72382014  0.15220472  0.88838267    -0.15900
H2972       H  0.73322956  0.11359308  0.91836301     0.09300
H2973       H  0.82368617  0.05322073  0.96600364     0.07100
H2974       H  0.80440478  0.03606352  0.94575538     0.08300
H2975       H  0.80155092  0.02378158  0.97143745     0.07400
H2976       H  0.69741749  0.13446270  0.95445176     0.02300
H2977       H  0.71615166  0.15199527  0.97485997     0.02700
H2978       H  0.69153447  0.12443920  0.98034285     0.06200
H2979       H  0.79148838  0.18978554  0.96725409     0.05200
H2980       H  0.80214048  0.15166449  0.96656284    -0.00500
H2981       H  0.76872658  0.16409490  0.97855446     0.00900
H2982       H  0.73856580  0.15467581  0.87545175     0.04600
H2983       H  0.70488093  0.16789456  0.88692849     0.06500
H2984       H  0.71575341  0.13004000  0.88738192     0.07400
C2985       C  0.74471505  0.39407219  0.91448017    -0.22200
C2986       C  0.72561979  0.38966451  0.93045976     0.09800
C2987       C  0.70978508  0.36465418  0.93081121     0.10200
C2988       C  0.71448111  0.34385365  0.91562028    -0.17100
C2989       C  0.73478673  0.34731253  0.90010103    -0.27600
C2990       C  0.74953233  0.37306157  0.89922632     0.18500
C2991       C  0.72404668  0.41070871  0.94729778     0.12500
C2992       C  0.68873619  0.35944327  0.94753240    -0.11900
H2993       H  0.70288039  0.32415166  0.91636427     0.12700
C2994       C  0.76974848  0.37861967  0.88216572    -0.22700
H2995       H  0.75639840  0.41374374  0.91426465     0.08400
C2996       C  0.74619735  0.41081776  0.96209786     0.04700
C2997       C  0.74617614  0.43357861  0.97616635    -0.20000
C2998       C  0.72397847  0.45558249  0.97607699    -0.12300
C2999       C  0.70023790  0.45368286  0.96255341     0.13400
C3000       C  0.70080639  0.43144420  0.94805967    -0.22700
C3001       C  0.77003245  0.38715876  0.96279540    -0.05800
H3002       H  0.76425167  0.43495418  0.98659733     0.15000
C3003       C  0.67426001  0.47493911  0.96286830    -0.15900
H3004       H  0.68336292  0.43062219  0.93702952     0.09300
H3005       H  0.77858070  0.40041474  0.88345309     0.07100
H3006       H  0.75800775  0.37751507  0.86745865     0.08300
H3007       H  0.78819581  0.36218000  0.88234213     0.07400
H3008       H  0.67131297  0.37700921  0.94758269     0.02300
H3009       H  0.70015456  0.35908437  0.96241793     0.02700
H3010       H  0.67849516  0.33842017  0.94558505     0.06200
H3011       H  0.78532580  0.39032027  0.97557344     0.05200
H3012       H  0.78244479  0.38688615  0.94849243    -0.00500
H3013       H  0.76057943  0.36579748  0.96480722     0.00900
H3014       H  0.67263548  0.48697337  0.94830732     0.04600
H3015       H  0.67505050  0.49083051  0.97547054     0.06500
H3016       H  0.65440353  0.46293885  0.96482063     0.07400
C3017       C  0.97660283  0.17796343  0.71221634    -0.22200
C3018       C  0.49682564  0.15659065  0.71899891     0.09800
C3019       C  0.51532610  0.16315801  0.73519623     0.10200
C3020       C  0.51298336  0.19079313  0.74423513    -0.17100
C3021       C  0.49117628  0.21237779  0.73876893    -0.27600
C3022       C  0.97339671  0.20552713  0.72158088     0.18500
C3023       C  0.50013832  0.12831338  0.70786779     0.12500
C3024       C  0.53724866  0.14064685  0.74348152    -0.11900
H3025       H  0.52875155  0.19493086  0.75576042     0.12700
C3026       C  0.95058806  0.22655440  0.71250606    -0.22700
H3027       H  0.96322126  0.17307395  0.69922712     0.08400
C3028       C  0.97938903  0.10711991  0.70850065     0.04700
C3029       C  0.98408770  0.08080993  0.69768870    -0.20000
C3030       C  0.50930590  0.07507412  0.68661520    -0.12300
C3031       C  0.53045130  0.09592384  0.68645190     0.13400
C3032       C  0.52526597  0.12249251  0.69655834    -0.22700
C3033       C  0.95243692  0.11201643  0.72090473    -0.05800
H3034       H  0.96793698  0.06476349  0.69787273     0.15000
C3035       C  0.55904225  0.08979465  0.67622524    -0.15900
H3036       H  0.54124120  0.13870355  0.69598123     0.09300
H3037       H  0.93740803  0.21610652  0.70071271     0.07100
H3038       H  0.96094909  0.24447296  0.70480567     0.08300
H3039       H  0.93526261  0.23517363  0.72408708     0.07400
H3040       H  0.55362460  0.13452559  0.73186366     0.02300
H3041       H  0.52616044  0.12105816  0.74810462     0.02700
H3042       H  0.54888245  0.14872061  0.75697285     0.06200
H3043       H  0.93884196  0.09297929  0.72027744     0.05200
H3044       H  0.93929617  0.13114976  0.71510321    -0.00500
H3045       H  0.95840828  0.11582977  0.73699846     0.00900
H3046       H  0.57306022  0.10844939  0.67742219     0.04600
H3047       H  0.55553349  0.08517436  0.65998349     0.06500
H3048       H  0.57063228  0.07071149  0.68344845     0.07400
C3049       C  0.97644447  0.34984454  0.67976094    -0.22200
C3050       C  0.99018612  0.34515699  0.69864450     0.09800
C3051       C  0.50627417  0.36733227  0.70705068     0.10200
C3052       C  0.50822782  0.39361567  0.69653170    -0.17100
C3053       C  0.99421674  0.39869392  0.67770912    -0.27600
C3054       C  0.97834529  0.37617596  0.66911602     0.18500
C3055       C  0.98733549  0.31720362  0.70970909     0.12500
C3056       C  0.52097849  0.36346974  0.72743724    -0.11900
H3057       H  0.52033919  0.41061061  0.70331727     0.12700
C3058       C  0.96400109  0.37845898  0.64854079    -0.22700
H3059       H  0.96428777  0.33271589  0.67319540     0.08400
C3060       C  0.96259909  0.31192576  0.72092354     0.04700
C3061       C  0.96239062  0.28706981  0.73323132    -0.20000
C3062       C  0.98697772  0.26731229  0.73587664    -0.12300
C3063       C  0.51072309  0.27180335  0.72260680     0.13400
C3064       C  0.51037644  0.29649612  0.71001260    -0.22700
C3065       C  0.93642499  0.33291397  0.72020479    -0.05800
H3066       H  0.94231446  0.28347247  0.74059691     0.15000
C3067       C  0.53800453  0.25230701  0.72158261    -0.15900
H3068       H  0.52909717  0.30024156  0.70085388     0.09300
H3069       H  0.94030720  0.37705140  0.65014965     0.07100
H3070       H  0.97245430  0.36027508  0.63879816     0.08300
H3071       H  0.96802960  0.39876971  0.64054030     0.07400
H3072       H  0.53730556  0.34490531  0.72689600     0.02300
H3073       H  0.50470916  0.35922350  0.73914617     0.02700
H3074       H  0.53219909  0.38308486  0.73206649     0.06200
H3075       H  0.91887964  0.32593178  0.73009756     0.05200
H3076       H  0.92783875  0.33453447  0.70445232    -0.00500
H3077       H  0.94243821  0.35468709  0.72539025     0.00900
H3078       H  0.53962524  0.24205680  0.70635638     0.04600
H3079       H  0.53967049  0.23515084  0.73307647     0.06500
H3080       H  0.55707259  0.26543684  0.72405728     0.07400
C3081       C  0.53980444  0.22534985  0.79851737    -0.22200
C3082       C  0.56089780  0.24534840  0.79548933     0.09800
C3083       C  0.55609553  0.26637022  0.78024448     0.10200
C3084       C  0.53116840  0.26612870  0.76789955    -0.17100
C3085       C  0.51101931  0.24403903  0.76889341    -0.27600
C3086       C  0.51469913  0.22480952  0.78608347     0.18500
C3087       C  0.58874778  0.24284291  0.80737853     0.12500
C3088       C  0.57794692  0.28864139  0.77636440    -0.11900
H3089       H  0.52814396  0.28367845  0.75728131     0.12700
C3090       C  0.49279862  0.20338592  0.79197386    -0.22700
H3091       H  0.54319452  0.20981539  0.81072365     0.08400
C3092       C  0.59413687  0.26034284  0.82449051     0.04700
C3093       C  0.62210958  0.25939283  0.83338885    -0.20000
C3094       C  0.64470690  0.24043500  0.82617857    -0.12300
C3095       C  0.63854214  0.22167415  0.80971742     0.13400
C3096       C  0.61089741  0.22337305  0.80055343    -0.22700
C3097       C  0.57025503  0.27961722  0.83354970    -0.05800
H3098       H  0.62635802  0.27349341  0.84611217     0.15000
C3099       C  0.66058006  0.20031348  0.80059134    -0.15900
H3100       H  0.60675674  0.20972236  0.78755272     0.09300
H3101       H  0.47275582  0.21516574  0.79728669     0.07100
H3102       H  0.50063618  0.18934673  0.80477314     0.08300
H3103       H  0.48788064  0.18866588  0.77932508     0.07400
H3104       H  0.59906906  0.27752082  0.77248667     0.02300
H3105       H  0.58071939  0.30228318  0.79002062     0.02700
H3106       H  0.57127837  0.30326235  0.76358844     0.06200
H3107       H  0.57788986  0.29155920  0.84703362     0.05200
H3108       H  0.55246403  0.26616317  0.83836819    -0.00500
H3109       H  0.56165260  0.29576648  0.82228275     0.00900
H3110       H  0.65271441  0.17808590  0.80149220     0.04600
H3111       H  0.68180051  0.19995783  0.80821297     0.06500
H3112       H  0.66373988  0.20577833  0.78440647     0.07400
C3113       C  0.91956564  0.26384617  0.78592539    -0.22200
C3114       C  0.90212078  0.24047540  0.78321575     0.09800
C3115       C  0.91223715  0.21669333  0.77151449     0.10200
C3116       C  0.93922523  0.21724960  0.76212462    -0.17100
C3117       C  0.95682067  0.24159241  0.76332342    -0.27600
C3118       C  0.94654402  0.26489321  0.77643954     0.18500
C3119       C  0.87358236  0.24114317  0.79328592     0.12500
C3120       C  0.89461548  0.19040393  0.76916016    -0.11900
H3121       H  0.94634927  0.19772939  0.75422249     0.12700
C3122       C  0.96230883  0.29198506  0.78075558    -0.22700
H3123       H  0.91181179  0.28178949  0.79546619     0.08400
C3124       C  0.87111547  0.23253357  0.81359885     0.04700
C3125       C  0.84406066  0.23523495  0.82292560    -0.20000
C3126       C  0.81916143  0.24704331  0.81265622    -0.12300
C3127       C  0.82160082  0.25450516  0.79189753     0.13400
C3128       C  0.84880116  0.25133928  0.78251390    -0.22700
C3129       C  0.89718341  0.22097490  0.82556146    -0.05800
H3130       H  0.84275152  0.22887639  0.83867391     0.15000
C3131       C  0.79605328  0.26622624  0.77952193    -0.15900
H3132       H  0.85095922  0.25754105  0.76678798     0.09300
H3133       H  0.96824811  0.29271899  0.79709131     0.07100
H3134       H  0.94792228  0.31141554  0.77708282     0.08300
H3135       H  0.98193684  0.29396245  0.77185764     0.07400
H3136       H  0.87343539  0.19680475  0.76198469     0.02300
H3137       H  0.89091443  0.18078418  0.78425394     0.02700
H3138       H  0.90560204  0.17341551  0.75953179     0.06200
H3139       H  0.89149147  0.21515318  0.84129524     0.05200
H3140       H  0.91345924  0.23766111  0.82641107    -0.00500
H3141       H  0.90694241  0.20121725  0.81809073     0.00900
H3142       H  0.80190999  0.26983940  0.76347559     0.04600
H3143       H  0.78772908  0.28742738  0.78577413     0.06500
H3144       H  0.77880714  0.25050867  0.77962101     0.07400
C3145       C  0.84157242  0.48181949  0.73622114    -0.22200
C3146       C  0.84695419  0.50311900  0.72204391     0.09800
C3147       C  0.82701657  0.02237741  0.71597801     0.10200
C3148       C  0.79933431  0.02056132  0.72412536    -0.17100
C3149       C  0.79073502  0.50012060  0.73942860    -0.27600
C3150       C  0.81387070  0.47871182  0.74422596     0.18500
C3151       C  0.87557484  0.50186906  0.71200889     0.12500
C3152       C  0.83216470  0.04505419  0.70023500    -0.11900
H3153       H  0.78260063  0.03642211  0.71918268     0.12700
C3154       C  0.81170946  0.45068507  0.75586981    -0.22700
H3155       H  0.85910206  0.46614855  0.74017939     0.08400
C3156       C  0.90287782  0.01446475  0.72114541     0.04700
C3157       C  0.92942745  0.01132644  0.71082879    -0.20000
C3158       C  0.92907450  0.49606729  0.69160343    -0.12300
C3159       C  0.90353263  0.48600002  0.68248722     0.13400
C3160       C  0.87733237  0.48928007  0.69277190    -0.22700
C3161       C  0.90079899  0.03166677  0.74053699    -0.05800
H3162       H  0.94820026  0.02153713  0.71679846     0.15000
C3163       C  0.90262893  0.47081425  0.66218244    -0.15900
H3164       H  0.85795874  0.48145181  0.68579340     0.09300
H3165       H  0.82519285  0.93297630  0.74780952     0.07100
H3166       H  0.78983274  0.44331314  0.75764376     0.08300
H3167       H  0.82266777  0.45221232  0.77084069     0.07400
H3168       H  0.83588805  0.53512289  0.68534023     0.02300
H3169       H  0.84882893  0.05951215  0.70586488     0.02700
H3170       H  0.81219966  0.05868233  0.69672002     0.06200
H3171       H  0.92182193  0.04047277  0.74479120     0.05200
H3172       H  0.89410144  0.01756987  0.75305191    -0.00500
H3173       H  0.88456180  0.05017286  0.73870977     0.00900
H3174       H  0.89308854  0.44946460  0.66403651     0.04600
H3175       H  0.92394879  0.46631991  0.65527111     0.06500
H3176       H  0.88889221  0.48415555  0.65143880     0.07400
C3177       C  0.70784252  0.48277918  0.70582433    -0.22200
C3178       C  0.69146797  0.00650035  0.70400672     0.09800
C3179       C  0.69771602  0.03192719  0.71447941     0.10200
C3180       C  0.72231763  0.03193281  0.72707671    -0.17100
C3181       C  0.73963858  0.00619457  0.73165042    -0.27600
C3182       C  0.73212811  0.48187837  0.71887632     0.18500
C3183       C  0.66326867  0.00372715  0.69343496     0.12500
C3184       C  0.67774722  0.05887583  0.71303319    -0.11900
H3185       H  0.72701064  0.05249881  0.73371230     0.12700
C3186       C  0.75058321  0.45396631  0.71813272    -0.22700
H3187       H  0.70306614  0.46365425  0.69708869     0.08400
C3188       C  0.65834563  0.01231065  0.67309549     0.04700
C3189       C  0.63039812  0.01116341  0.66462288    -0.20000
C3190       C  0.60761754  0.00059833  0.67582426    -0.12300
C3191       C  0.60980088  0.49443761  0.69650695     0.13400
C3192       C  0.63737876  0.49625080  0.70522009    -0.22700
C3193       C  0.68260070  0.02225838  0.66031864    -0.05800
H3194       H  0.62635385  0.01825538  0.64914331     0.15000
C3195       C  0.58538365  0.48559361  0.70964090    -0.15900
H3196       H  0.64084389  0.49093567  0.72109563     0.09300
H3197       H  0.75936669  0.45075287  0.70263287     0.07100
H3198       H  0.73736201  0.43540849  0.72183195     0.08300
H3199       H  0.76879380  0.45337761  0.72865366     0.07400
H3200       H  0.65590911  0.05405529  0.71838096     0.02300
H3201       H  0.67610469  0.06647446  0.69710888     0.02700
H3202       H  0.68549727  0.07687003  0.72247365     0.06200
H3203       H  0.67513754  0.02787272  0.64468019     0.05200
H3204       H  0.69990899  0.00463980  0.65930645    -0.00500
H3205       H  0.69173972  0.04172495  0.66717038     0.00900
H3206       H  0.59253292  0.48178118  0.72558619     0.04600
H3207       H  0.57686753  0.46514300  0.70384681     0.06500
H3208       H  0.56779958  0.50301045  0.70965925     0.07400
C3209       C  0.73442236  0.07594825  0.78029837    -0.22200
C3210       C  0.75765991  0.09378805  0.77884210     0.09800
C3211       C  0.78315585  0.08273479  0.76956820     0.10200
C3212       C  0.78464565  0.05439148  0.76173769    -0.17100
C3213       C  0.76055919  0.03653111  0.76123086    -0.27600
C3214       C  0.73514685  0.04794289  0.77163687     0.18500
C3215       C  0.75567030  0.12306874  0.78858726     0.12500
C3216       C  0.80895727  0.10099564  0.76761319    -0.11900
H3217       H  0.80557789  0.04646512  0.75653205     0.12700
C3218       C  0.70754578  0.03242004  0.77360097    -0.22700
H3219       H  0.71514372  0.08421531  0.78810063     0.08400
C3220       C  0.73789358  0.14649711  0.78084354     0.04700
C3221       C  0.73580006  0.17309939  0.79151042    -0.20000
C3222       C  0.75094209  0.17684575  0.80987036    -0.12300
C3223       C  0.77046378  0.15374604  0.81667246     0.13400
C3224       C  0.77201448  0.12723528  0.80615820    -0.22700
C3225       C  0.72126383  0.14344847  0.76129902    -0.05800
H3226       H  0.72169121  0.19075130  0.78569462     0.15000
C3227       C  0.79022131  0.15645601  0.83485462    -0.15900
H3228       H  0.78587676  0.10928272  0.81189002     0.09300
H3229       H  0.68909094  0.04665850  0.76787396     0.07100
H3230       H  0.70386640  0.02747756  0.78980468     0.08300
H3231       H  0.70703974  0.01222788  0.76486051     0.07400
H3232       H  0.81764371  0.10633566  0.78280330     0.02300
H3233       H  0.80248808  0.12140090  0.75943997     0.02700
H3234       H  0.82671957  0.08959407  0.75899919     0.06200
H3235       H  0.70892710  0.16396931  0.75712158     0.05200
H3236       H  0.70566115  0.12626099  0.76278622    -0.00500
H3237       H  0.73647443  0.13757792  0.74884352     0.00900
H3238       H  0.77757768  0.15749185  0.84904470     0.04600
H3239       H  0.80277490  0.17610249  0.83334327     0.06500
H3240       H  0.80601176  0.13748852  0.83628988     0.07400
C3241       C  0.76808861  0.45520726  0.79844306    -0.22200
C3242       C  0.74939282  0.43341528  0.79354735     0.09800
C3243       C  0.73095118  0.43748373  0.77659189     0.10200
C3244       C  0.73299883  0.46208005  0.76428922    -0.17100
C3245       C  0.75469895  0.48229955  0.76709303    -0.27600
C3246       C  0.77094353  0.47958925  0.78579480     0.18500
C3247       C  0.75033490  0.40592357  0.80568672     0.12500
C3248       C  0.70971702  0.41523672  0.77080403    -0.11900
H3249       H  0.71728658  0.46476133  0.75231003     0.12700
C3250       C  0.79222304  0.50123805  0.79269433    -0.22700
H3251       H  0.78123399  0.45261653  0.81206140     0.08400
C3252       C  0.77428817  0.38551340  0.80480202     0.04700
C3253       C  0.77335256  0.35882724  0.81498577    -0.20000
C3254       C  0.74878304  0.35138676  0.82570784    -0.12300
C3255       C  0.72499692  0.37212961  0.82698289     0.13400
C3256       C  0.72629922  0.39920103  0.81721816    -0.22700
C3257       C  0.80048148  0.39124989  0.79241123    -0.05800
H3258       H  0.79163538  0.34315729  0.81388374     0.15000
C3259       C  0.69831915  0.36618007  0.83878789    -0.15900
H3260       H  0.70814853  0.41503417  0.81819681     0.09300
H3261       H  0.80445882  0.49374276  0.80645546     0.07100
H3262       H  0.78060960  0.52204129  0.79685679     0.08300
H3263       H  0.80981529  0.00506961  0.78126570     0.07400
H3264       H  0.69338069  0.41361166  0.78284939     0.02300
H3265       H  0.72134500  0.39373976  0.76859943     0.02700
H3266       H  0.69798535  0.42098123  0.75647082     0.06200
H3267       H  0.81679413  0.37263145  0.79282345     0.05200
H3268       H  0.81097001  0.41054234  0.79839943    -0.00500
H3269       H  0.79394376  0.39503569  0.77635812     0.00900
H3270       H  0.68269219  0.38537110  0.83910045     0.04600
H3271       H  0.70435510  0.36058372  0.85469388     0.06500
H3272       H  0.68713619  0.34805848  0.83169219     0.07400
C3273       C  0.57344216  0.28826883  0.04846932    -0.22200
C3274       C  0.59146786  0.26313503  0.05120987     0.09800
C3275       C  0.58815259  0.23889630  0.03846135     0.10200
C3276       C  0.56547947  0.23964808  0.02414442    -0.17100
C3277       C  0.54633242  0.26421480  0.02220118    -0.27600
C3278       C  0.55106328  0.28922300  0.03400604     0.18500
C3279       C  0.61276902  0.26216800  0.06812069     0.12500
C3280       C  0.60820694  0.21209703  0.04025228    -0.11900
H3281       H  0.56167143  0.22040161  0.01530792     0.12700
C3282       C  0.53237233  0.31697123  0.03213109    -0.22700
H3283       H  0.57631729  0.30699456  0.05809740     0.08400
C3284       C  0.63838602  0.27704631  0.06714977     0.04700
C3285       C  0.65830776  0.27444925  0.08324984    -0.20000
C3286       C  0.65344377  0.25706656  0.10025392    -0.12300
C3287       C  0.62711374  0.24323658  0.10156258     0.13400
C3288       C  0.60713955  0.24592150  0.08544654    -0.22700
C3289       C  0.64523283  0.29474805  0.04882964    -0.05800
H3290       H  0.67845820  0.28505975  0.08207220     0.15000
C3291       C  0.61908918  0.22619778  0.11982922    -0.15900
H3292       H  0.58704211  0.23510822  0.08633129     0.09300
H3293       H  0.54609952  0.33511108  0.02839426     0.07100
H3294       H  0.52141484  0.32180211  0.04675116     0.08300
H3295       H  0.51561258  0.31600707  0.02009590     0.07400
H3296       H  0.60641363  0.20232527  0.05550785     0.02300
H3297       H  0.63083559  0.21792581  0.03789488     0.02700
H3298       H  0.60303469  0.19544125  0.02879851     0.06200
H3299       H  0.66661616  0.30427529  0.05033697     0.05200
H3300       H  0.62861971  0.31285105  0.04681888    -0.00500
H3301       H  0.64559904  0.28075941  0.03509738     0.00900
H3302       H  0.59820101  0.23530074  0.12590854     0.04600
H3303       H  0.63532591  0.22726300  0.13209527     0.06500
H3304       H  0.61687603  0.20313785  0.11556344     0.07400
C3305       C  0.90188104  0.28456527  0.04528994    -0.22200
C3306       C  0.89721316  0.25899418  0.05586241     0.09800
C3307       C  0.91460024  0.23352405  0.05208495     0.10200
C3308       C  0.93658195  0.23424416  0.03775563    -0.17100
C3309       C  0.94136581  0.25984621  0.02722935    -0.27600
C3310       C  0.92409984  0.28544047  0.03114684     0.18500
C3311       C  0.87353089  0.25932244  0.07055697     0.12500
C3312       C  0.91014723  0.20581932  0.06335294    -0.11900
H3313       H  0.95036560  0.21488926  0.03488588     0.12700
C3314       C  0.92905009  0.31407107  0.02119481    -0.22700
H3315       H  0.88838411  0.30405380  0.04835522     0.08400
C3316       C  0.87706790  0.26940821  0.09053987     0.04700
C3317       C  0.85328117  0.27080284  0.10352578    -0.20000
C3318       C  0.82607883  0.26225162  0.09695886    -0.12300
C3319       C  0.82298208  0.25137500  0.07692610     0.13400
C3320       C  0.84682776  0.25012424  0.06402672    -0.22700
C3321       C  0.90586168  0.27883137  0.09805143    -0.05800
H3322       H  0.85589944  0.27895513  0.11882628     0.15000
C3323       C  0.79463115  0.24201013  0.06858720    -0.15900
H3324       H  0.84459121  0.24237596  0.04857821     0.09300
H3325       H  0.93298809  0.33057390  0.03303309     0.07100
H3326       H  0.90960270  0.32133912  0.01218846     0.08300
H3327       H  0.94790428  0.31300475  0.01099507     0.07400
H3328       H  0.88805896  0.19872734  0.06025506     0.02300
H3329       H  0.91284173  0.20943952  0.07989595     0.02700
H3330       H  0.92590463  0.18803102  0.05869880     0.06200
H3331       H  0.90494071  0.28593082  0.11415108     0.05200
H3332       H  0.91263404  0.29726762  0.08880299    -0.00500
H3333       H  0.92235921  0.26048156  0.09683261     0.00900
H3334       H  0.79626802  0.23512479  0.05246519     0.04600
H3335       H  0.77805650  0.26028500  0.06939361     0.06500
H3336       H  0.78772949  0.22319848  0.07731116     0.07400
C3337       C  0.63702674  0.25311166  0.93999281    -0.22200
C3338       C  0.60881082  0.25135658  0.93287695     0.09800
C3339       C  0.60342865  0.24560741  0.91219634     0.10200
C3340       C  0.62684396  0.24088622  0.89900477    -0.17100
C3341       C  0.65523985  0.24240095  0.90615256    -0.27600
C3342       C  0.66037439  0.24898948  0.92691990     0.18500
C3343       C  0.58552760  0.25351698  0.94786446     0.12500
C3344       C  0.57301511  0.24526698  0.90405871    -0.11900
H3345       H  0.62297472  0.23736966  0.88296936     0.12700
C3346       C  0.69032237  0.25174122  0.93562421    -0.22700
H3347       H  0.64071423  0.25755379  0.95594230     0.08400
C3348       C  0.57691558  0.22844829  0.95772037     0.04700
C3349       C  0.55473230  0.23109134  0.97192081    -0.20000
C3350       C  0.54160202  0.25830463  0.97675968    -0.12300
C3351       C  0.55093322  0.28359682  0.96740620     0.13400
C3352       C  0.57299599  0.28087807  0.95303369    -0.22700
C3353       C  0.59118376  0.19897080  0.95319719    -0.05800
H3354       H  0.54723260  0.21182038  0.97905649     0.15000
C3355       C  0.53781897  0.31352825  0.97201005    -0.15900
H3356       H  0.58027179  0.30009645  0.94568504     0.09300
H3357       H  0.70273343  0.23054693  0.93442217     0.07100
H3358       H  0.68981474  0.25771388  0.95195465     0.08300
H3359       H  0.70153281  0.26893139  0.92767830     0.07400
H3360       H  0.56151702  0.26670071  0.90678723     0.02300
H3361       H  0.56135974  0.22818043  0.91178744     0.02700
H3362       H  0.57260253  0.24085410  0.88749554     0.06200
H3363       H  0.58180511  0.18165991  0.96226036     0.05200
H3364       H  0.61462099  0.19892368  0.95686214    -0.00500
H3365       H  0.58837129  0.19366641  0.93689956     0.00900
H3366       H  0.55480253  0.32726750  0.97808138     0.04600
H3367       H  0.52029106  0.31341781  0.98329128     0.06500
H3368       H  0.52863033  0.32350281  0.95788247     0.07400
C3369       C  0.89930652  0.28031461  0.95813373    -0.22200
C3370       C  0.88160716  0.25700996  0.96080751     0.09800
C3371       C  0.89057198  0.23464379  0.97450759     0.10200
C3372       C  0.91723256  0.23589288  0.98483377    -0.17100
C3373       C  0.93507567  0.25911838  0.98197631    -0.27600
C3374       C  0.92564035  0.28190644  0.96867806     0.18500
C3375       C  0.85493868  0.25582085  0.94796454     0.12500
C3376       C  0.87194610  0.20961196  0.97837690    -0.11900
H3377       H  0.92441704  0.21841423  0.99496716     0.12700
C3378       C  0.94244938  0.30849592  0.96537804    -0.22700
H3379       H  0.89256717  0.29742542  0.94756496     0.08400
C3380       C  0.83082853  0.27573167  0.95031802     0.04700
C3381       C  0.80796790  0.27611591  0.93598360    -0.20000
C3382       C  0.80861241  0.25714887  0.91918331    -0.12300
C3383       C  0.83214018  0.23600980  0.91766125     0.13400
C3384       C  0.85488888  0.23581835  0.93196186    -0.22700
C3385       C  0.82924736  0.29657201  0.96795735    -0.05800
H3386       H  0.79000717  0.29206813  0.93753242     0.15000
C3387       C  0.83370024  0.21334492  0.90111770    -0.15900
H3388       H  0.87336042  0.22050409  0.93025427     0.09300
H3389       H  0.92861456  0.32821205  0.96912462     0.07100
H3390       H  0.94883915  0.30957762  0.94923214     0.08300
H3391       H  0.96219829  0.30902598  0.97490666     0.07400
H3392       H  0.86899824  0.19706480  0.96421405     0.02300
H3393       H  0.85049618  0.21796474  0.98393238     0.02700
H3394       H  0.88176834  0.19453261  0.98996696     0.06200
H3395       H  0.80861672  0.31010097  0.96790925     0.05200
H3396       H  0.84721387  0.31138455  0.96730623    -0.00500
H3397       H  0.83079950  0.28423021  0.98240007     0.00900
H3398       H  0.85225024  0.19729069  0.90341649     0.04600
H3399       H  0.83663255  0.22366784  0.88616846     0.06500
H3400       H  0.81369214  0.20125502  0.90098055     0.07400
C3401       C  0.87060730  0.98538499  0.30832712    -0.22200
C3402       C  0.86814360  0.50567000  0.29024495     0.09800
C3403       C  0.89329976  0.51646792  0.28182713     0.10200
C3404       C  0.91979855  0.51273323  0.29247216    -0.17100
C3405       C  0.92125828  0.49932934  0.31157114    -0.27600
C3406       C  0.89663911  0.98276120  0.31926449     0.18500
C3407       C  0.84012438  0.50583368  0.27920710     0.12500
C3408       C  0.89197509  0.53244383  0.26193218    -0.11900
H3409       H  0.93923460  0.52083442  0.28611428     0.12700
C3410       C  0.89719415  0.96615833  0.33899186    -0.22700
H3411       H  0.85165037  0.97553840  0.31406350     0.08400
C3412       C  0.83423906  0.48348275  0.26567951     0.04700
C3413       C  0.80665825  0.48270603  0.25695015    -0.20000
C3414       C  0.78285373  0.50215973  0.26249678    -0.12300
C3415       C  0.79054422  0.02277458  0.27686671     0.13400
C3416       C  0.81877359  0.02258633  0.28495584    -0.22700
C3417       C  0.85698962  0.45976490  0.26075381    -0.05800
H3418       H  0.80474942  0.46650603  0.24538510     0.15000
C3419       C  0.77059485  0.04744866  0.28421105    -0.15900
H3420       H  0.82411058  0.03882106  0.29609319     0.09300
H3421       H  0.91350800  0.94767644  0.33836413     0.07100
H3422       H  0.87602495  0.95710789  0.34216284     0.08300
H3423       H  0.90211666  0.98063853  0.35186261     0.07400
H3424       H  0.87675090  0.55185448  0.26315089     0.02300
H3425       H  0.88438207  0.51824759  0.24964125     0.02700
H3426       H  0.91347006  0.53980585  0.25765459     0.06200
H3427       H  0.84874312  0.44342486  0.25010488     0.05200
H3428       H  0.86410667  0.44825604  0.27486777    -0.00500
H3429       H  0.87593529  0.46909130  0.25367948     0.00900
H3430       H  0.76964799  0.04706353  0.30103175     0.04600
H3431       H  0.74847402  0.04653197  0.27863826     0.06500
H3432       H  0.77883445  0.06843032  0.27935594     0.07400
C3433       C  0.67512917  0.48576065  0.27159374    -0.22200
C3434       C  0.67964816  0.99277215  0.29425661     0.09800
C3435       C  0.70796191  0.99448205  0.30169509     0.10200
C3436       C  0.73097939  0.99428803  0.28797611    -0.17100
C3437       C  0.72643922  0.99452433  0.26663589    -0.27600
C3438       C  0.69845721  0.48654742  0.25815220     0.18500
C3439       C  0.65401987  0.99564318  0.30753724     0.12500
C3440       C  0.71377655  0.99710150  0.32411060    -0.11900
H3441       H  0.75243851  0.99447154  0.29434055     0.12700
C3442       C  0.69147323  0.48103695  0.23602902    -0.22700
H3443       H  0.65374822  0.48167039  0.26584915     0.08400
C3444       C  0.63733936  0.02214214  0.30903011     0.04700
C3445       C  0.61076792  0.02292710  0.31910617    -0.20000
C3446       C  0.60020871  0.99766935  0.32740638    -0.12300
C3447       C  0.61865815  0.47231699  0.32803583     0.13400
C3448       C  0.64439345  0.47098732  0.31686459    -0.22700
C3449       C  0.64719259  0.04938806  0.29943118    -0.05800
H3450       H  0.59752194  0.04307496  0.31956304     0.15000
C3451       C  0.61324685  0.44690069  0.34151978    -0.15900
H3452       H  0.65867416  0.45152462  0.31745574     0.09300
H3453       H  0.66785187  0.48041145  0.23322480     0.07100
H3454       H  0.70097192  0.45956016  0.23123218     0.08300
H3455       H  0.69907623  0.49844822  0.22624385     0.07400
H3456       H  0.70616727  0.97784597  0.33206918     0.02300
H3457       H  0.70215797  0.01699498  0.33010536     0.02700
H3458       H  0.73717308  0.99850878  0.32749995     0.06200
H3459       H  0.63193450  0.06836706  0.30237702     0.05200
H3460       H  0.64867520  0.04637576  0.28277762    -0.00500
H3461       H  0.66871241  0.05431505  0.30564968     0.00900
H3462       H  0.61022505  0.42733114  0.33207803     0.04600
H3463       H  0.59423896  0.45078122  0.35140254     0.06500
H3464       H  0.63219650  0.44253651  0.35173364     0.07400
C3465       C  0.74803036  0.13970382  0.22158037    -0.22200
C3466       C  0.74860822  0.11400214  0.21014858     0.09800
C3467       C  0.74434814  0.11560248  0.18904632     0.10200
C3468       C  0.74264735  0.14281906  0.17967728    -0.17100
C3469       C  0.74272761  0.16904792  0.19085156    -0.27600
C3470       C  0.74424710  0.16721977  0.21241466     0.18500
C3471       C  0.74963349  0.08572490  0.22082491     0.12500
C3472       C  0.73929233  0.08885792  0.17652727    -0.11900
H3473       H  0.73980946  0.14343406  0.16335205     0.12700
C3474       C  0.74139637  0.19277716  0.22671684    -0.22700
H3475       H  0.74968178  0.13820326  0.23796927     0.08400
C3476       C  0.77353024  0.06570545  0.21999019     0.04700
C3477       C  0.77170043  0.03831769  0.22888383    -0.20000
C3478       C  0.74770228  0.03057805  0.24066001    -0.12300
C3479       C  0.72436619  0.05286587  0.24267252     0.13400
C3480       C  0.72566967  0.07907628  0.23197815    -0.22700
C3481       C  0.80166033  0.07377994  0.21084538    -0.05800
H3482       H  0.79000121  0.02287150  0.22713225     0.15000
C3483       C  0.69776879  0.05204840  0.25582457    -0.15900
H3484       H  0.70770526  0.09523102  0.23251608     0.09300
H3485       H  0.76060725  0.19251916  0.23692100     0.07100
H3486       H  0.72194815  0.19084473  0.23620248     0.08300
H3487       H  0.73945723  0.21416665  0.21936353     0.07400
H3488       H  0.72015122  0.07825620  0.18235150     0.02300
H3489       H  0.75820019  0.07309627  0.17720979     0.02700
H3490       H  0.73509558  0.09425379  0.16032255     0.06200
H3491       H  0.81855903  0.05575030  0.21199502     0.05200
H3492       H  0.80964870  0.09278461  0.21908508    -0.00500
H3493       H  0.79889006  0.07949977  0.19463588     0.00900
H3494       H  0.70269927  0.04502455  0.27150158     0.04600
H3495       H  0.68116325  0.03935204  0.24843595     0.06500
H3496       H  0.68686731  0.07395383  0.25783641     0.07400
C3497       C  0.75664646  0.42104518  0.22924821    -0.22200
C3498       C  0.75501956  0.42570727  0.20841154     0.09800
C3499       C  0.75316256  0.45424275  0.20096485     0.10200
C3500       C  0.75253141  0.47771398  0.21465457    -0.17100
C3501       C  0.75430819  0.47370701  0.23603520    -0.27600
C3502       C  0.75685887  0.44409970  0.24311668     0.18500
C3503       C  0.75390765  0.39997923  0.19494445     0.12500
C3504       C  0.75150898  0.45987015  0.17848306    -0.11900
H3505       H  0.74946680  0.49909814  0.20819249     0.12700
C3506       C  0.76064268  0.43504926  0.26504315    -0.22700
H3507       H  0.75807391  0.39887319  0.23479826     0.08400
C3508       C  0.77910606  0.38331742  0.18948660     0.04700
C3509       C  0.77660338  0.35698815  0.17902493    -0.20000
C3510       C  0.74940907  0.34646186  0.17430645    -0.12300
C3511       C  0.72412353  0.36393833  0.17926110     0.13400
C3512       C  0.72683677  0.39049010  0.18938123    -0.22700
C3513       C  0.80858627  0.39306652  0.19511434    -0.05800
H3514       H  0.79607985  0.34401508  0.17527153     0.15000
C3515       C  0.69409596  0.35492003  0.17434135    -0.15900
H3516       H  0.70763170  0.40349654  0.19373053     0.09300
H3517       H  0.77981420  0.41954853  0.26653092     0.07100
H3518       H  0.74124330  0.42410743  0.27005042     0.08300
H3519       H  0.76457793  0.45286952  0.27559232     0.07400
H3520       H  0.73197426  0.45042901  0.17196278     0.02300
H3521       H  0.77100657  0.44974052  0.17105999     0.02700
H3522       H  0.75033808  0.48345532  0.17501258     0.06200
H3523       H  0.82608475  0.37762159  0.18961184     0.05200
H3524       H  0.81068935  0.39471522  0.21185419    -0.00500
H3525       H  0.81163868  0.41463349  0.18830115     0.00900
H3526       H  0.68943828  0.33542994  0.18325336     0.04600
H3527       H  0.69205572  0.35030312  0.15789426     0.06500
H3528       H  0.67730991  0.37217416  0.17820435     0.07400
C3529       C  0.75231388  0.50032442  0.25117197    -0.02200
C3530       C  0.96747191  0.76025714  0.01252740     0.02500
C3531       C  0.96497264  0.76024612  0.99115817     0.02500
C3532       C  0.99040212  0.75928659  0.97977438    -0.18000
C3533       C  0.51760737  0.75972277  0.98923420     0.02500
C3534       C  0.51986418  0.76051306  0.01055367     0.02500
C3535       C  0.99469214  0.76024009  0.02193910    -0.18000
H3536       H  0.99619268  0.76066073  0.03837146     0.04500
H3537       H  0.98896194  0.75873252  0.96335106     0.04500
C3538       C  0.76039920  0.50554231  0.75016215    -0.02200
C3539       C  0.98615746  0.74253327  0.74948625    -0.02200
C3540       C  0.74487935  0.98058808  0.00793021     0.02500
C3541       C  0.74186802  0.98219549  0.98661845     0.02500
C3542       C  0.73071333  0.50823808  0.97714650    -0.18000
C3543       C  0.73581408  0.53415166  0.98726755     0.02500
C3544       C  0.73722932  0.53427576  0.00860688     0.02500
C3545       C  0.73520448  0.50843518  0.01933493    -0.18000
H3546       H  0.73698048  0.50862068  0.03575055     0.04500
H3547       H  0.72914684  0.50818758  0.96072665     0.04500
O3548       O  0.79120018  0.75181989  0.88280535    -0.79900
O3549       O  0.74962877  0.70254226  0.83927629    -0.79900
O3550       O  0.73291799  0.73362266  0.90311532    -0.79900
O3551       O  0.76855862  0.76571527  0.81546079    -0.79900
O3552       O  0.75167270  0.70550308  0.87972527    -0.80000
O3553       O  0.79363943  0.74750015  0.84128449    -0.79900
O3554       O  0.72793340  0.72612725  0.81446884    -0.79900
O3555       O  0.76222180  0.77350695  0.90431444    -0.79900
C3556       C  0.78672692  0.76073338  0.90073347     1.09800
C3557       C  0.74280301  0.70384060  0.82087169     1.09700
C3558       C  0.74462232  0.70923039  0.89790999     1.09800
C3559       C  0.79171338  0.75285080  0.82257352     1.09700
O3560       O  0.77271115  0.80777609  0.83788690    -0.79900
O3561       O  0.68973582  0.72463424  0.88097196    -0.80000
O3562       O  0.72038194  0.80868417  0.88178299    -0.79900
O3563       O  0.68564961  0.76764283  0.83351430    -0.79900
O3564       O  0.68788117  0.72096699  0.83952178    -0.79900
O3565       O  0.76656581  0.81238902  0.87853836    -0.79900
O3566       O  0.72603176  0.80877264  0.83390633    -0.79900
O3567       O  0.68916838  0.77104779  0.88805705    -0.79900
Co3568     Co  0.77826634  0.77739900  0.85980320     1.51500
Co3569     Co  0.72171363  0.71632511  0.85950445     1.51700
Co3570     Co  0.72964542  0.76810203  0.88401070     1.51600
Co3571     Co  0.72729495  0.76708866  0.82654534     1.51500
O3572       O  0.73904242  0.75688029  0.85617744    -1.41800
C3573       C  0.74921366  0.82158721  0.83303416     1.09700
C3574       C  0.67821726  0.74725989  0.88966120     1.09800
C3575       C  0.74181155  0.82332774  0.88403515     1.09800
C3576       C  0.67363518  0.74376775  0.83336413     1.09700
O3577       O  0.79475117  0.74603964  0.15260371    -0.79900
O3578       O  0.74752948  0.69943700  0.11926834    -0.79900
O3579       O  0.73097093  0.72108715  0.18542551    -0.79900
O3580       O  0.78087653  0.75263196  0.10914904    -0.79900
O3581       O  0.74701503  0.69506167  0.15978509    -0.80000
O3582       O  0.80411762  0.78712184  0.12417992    -0.79900
O3583       O  0.73028135  0.73047136  0.09753870    -0.79900
O3584       O  0.77367534  0.76031171  0.18109291    -0.79900
C3585       C  0.79586891  0.74975308  0.17160675     1.09800
C3586       C  0.74100756  0.70547194  0.10118508     1.09700
C3587       C  0.74132904  0.69701281  0.17837114     1.09800
C3588       C  0.80328321  0.76796233  0.11042971     1.09700
O3589       O  0.74877290  0.80731027  0.11909400    -0.79900
O3590       O  0.68721869  0.71737102  0.16086608    -0.80000
O3591       O  0.72867967  0.80353568  0.16624008    -0.79900
O3592       O  0.69576121  0.77312450  0.11786905    -0.79900
O3593       O  0.68781897  0.72644401  0.11992042    -0.79900
O3594       O  0.77341647  0.80481905  0.15743502    -0.79900
O3595       O  0.73783836  0.78441710  0.09115965    -0.79900
O3596       O  0.68868842  0.76335486  0.16918500    -0.79900
Co3597     Co  0.77046263  0.77374814  0.13627389     1.51500
Co3598     Co  0.71893287  0.71164777  0.14010765     1.51700
Co3599     Co  0.73078572  0.76193053  0.17363072     1.51600
Co3600     Co  0.73743622  0.76393917  0.11548788     1.51500
O3601       O  0.73670011  0.75043077  0.14411056    -1.41800
C3602       C  0.74273174  0.80791015  0.09983735     1.09700
C3603       C  0.67532898  0.74031824  0.16862216     1.09800
C3604       C  0.75112837  0.81742585  0.16507379     1.09800
C3605       C  0.67994897  0.75224565  0.11416564     1.09700
O3606       O  0.56495168  0.52387769  0.65781481    -0.79900
O3607       O  0.97875115  0.94814028  0.61902492    -0.79900
O3608       O  0.52123326  0.94038263  0.66843965    -0.79900
O3609       O  0.54335702  0.99042185  0.59176441    -0.79900
O3610       O  0.97500480  0.94260562  0.65989768    -0.80000
O3611       O  0.56432673  0.50016576  0.61928631    -0.79900
O3612       O  0.52618174  0.94890726  0.61729490    -0.79900
O3613       O  0.56379663  0.97868587  0.66730974    -0.79900
C3614       C  0.57622205  0.50147993  0.66636648     1.09800
C3615       C  0.00288243  0.93674256  0.61295072     1.09700
C3616       C  0.99742324  0.92842354  0.66681466     1.09800
C3617       C  0.56419116  0.49303203  0.60018114     1.09700
O3618       O  0.54762857  0.55688395  0.62532138    -0.79900
O3619       O  0.95692065  0.00457858  0.66273477    -0.80000
O3620       O  0.52112532  0.52499724  0.68292144    -0.79900
O3621       O  0.98494080  0.48859531  0.59887509    -0.79900
O3622       O  0.95962386  0.01006249  0.62265589    -0.79900
O3623       O  0.50767571  0.54851358  0.65475050    -0.79900
O3624       O  0.51274857  0.53473457  0.60977714    -0.79900
O3625       O  0.98004276  0.48363893  0.68713091    -0.79900
Co3626     Co  0.53293358  0.52335082  0.63731337     1.51500
Co3627     Co  0.96972501  0.97770226  0.64129924     1.51700
Co3628     Co  0.52051710  0.48247946  0.67487622     1.51600
Co3629     Co  0.52054386  0.49054128  0.61604289     1.51500
O3630       O  0.50865677  0.49033505  0.64518396    -1.41800
C3631       C  0.52885804  0.55649117  0.61130481     1.09700
C3632       C  0.95862138  0.99542386  0.68057483     1.09800
C3633       C  0.51164804  0.54809902  0.67380622     1.09800
C3634       C  0.96354133  0.00539639  0.60410165     1.09700
O3635       O  0.50035313  0.54579233  0.34736177    -0.79900
O3636       O  0.95545719  0.00193954  0.38127796    -0.79900
O3637       O  0.97242319  0.98226621  0.31519104    -0.79900
O3638       O  0.50975844  0.53300963  0.39163267    -0.79900
O3639       O  0.94836921  0.99972382  0.34137378    -0.80000
O3640       O  0.54300482  0.55520172  0.37508410    -0.79900
O3641       O  0.98567311  0.98338656  0.40311163    -0.79900
O3642       O  0.51381468  0.52396009  0.31897065    -0.79900
C3643       C  0.50331325  0.54642793  0.32834997     1.09800
C3644       C  0.96158504  0.99624892  0.39944881     1.09700
C3645       C  0.94915435  0.99322395  0.32292777     1.09800
C3646       C  0.52524762  0.55523503  0.38951700     1.09700
O3647       O  0.56109481  0.49917380  0.38082869    -0.79900
O3648       O  0.96822704  0.93866331  0.34044975    -0.80000
O3649       O  0.55538098  0.97690962  0.33343292    -0.79900
O3650       O  0.52608040  0.94652569  0.38210520    -0.79900
O3651       O  0.97920978  0.94063360  0.38106468    -0.79900
O3652       O  0.55825795  0.52169847  0.34223809    -0.79900
O3653       O  0.54064603  0.98853822  0.40877176    -0.79900
O3654       O  0.51365616  0.93798428  0.33073817    -0.79900
Co3655     Co  0.52783901  0.52139115  0.36367730     1.51500
Co3656     Co  0.96489142  0.97163834  0.36087394     1.51700
Co3657     Co  0.51378129  0.98042470  0.32640680     1.51600
Co3658     Co  0.51887238  0.98855206  0.38472003     1.51500
O3659       O  0.50407540  0.98763375  0.35621627    -1.41800
C3660       C  0.56228223  0.49333688  0.40007818     1.09700
C3661       C  0.98994064  0.92559261  0.33207119     1.09800
C3662       C  0.56970461  0.49847405  0.33486292     1.09800
C3663       C  0.00485988  0.93150381  0.38613490     1.09700
C3664       C  0.02615671  0.77239341  0.48987471     0.02500
C3665       C  0.02696790  0.77269816  0.51139676     0.02500
C3666       C  0.02852226  0.74606914  0.52177104    -0.18000
C3667       C  0.02750824  0.71955932  0.51144274     0.02500
C3668       C  0.02429091  0.71945448  0.49021759     0.02500
C3669       C  0.02388726  0.74579487  0.47973844    -0.18000
H3670       H  0.02127110  0.74557898  0.46338079     0.04500
H3671       H  0.02949414  0.74600261  0.53821330     0.04500
C3672       C  0.79042914  0.01133260  0.51222531     0.02500
C3673       C  0.79182155  0.01006387  0.49099128     0.02500
C3674       C  0.76672692  0.00664914  0.47955307    -0.18000
C3675       C  0.73998950  0.00416568  0.48893524     0.02500
C3676       C  0.73845621  0.00569681  0.51041052     0.02500
C3677       C  0.76382529  0.00944147  0.52173421    -0.18000
H3678       H  0.76298239  0.01017122  0.53815742     0.04500
H3679       H  0.76811694  0.00547150  0.46315976     0.04500
C3680       C  0.48945992  0.73748281  0.24900048    -0.02200
C3681       C  0.51013649  0.81150761  0.27577116    -0.22200
C3682       C  0.98867256  0.81418556  0.29054339     0.09800
C3683       C  0.96893257  0.79235563  0.29213689     0.10200
C3684       C  0.97060211  0.76867533  0.27858814    -0.17100
C3685       C  0.99142595  0.76550638  0.26286351    -0.27600
C3686       C  0.51269894  0.78765035  0.26233694     0.18500
C3687       C  0.98725562  0.84099650  0.30344482     0.12500
C3688       C  0.94617218  0.79383079  0.30830291    -0.11900
H3689       H  0.95470544  0.75253128  0.28000672     0.12700
C3690       C  0.53903683  0.78783400  0.24887128    -0.22700
H3691       H  0.52507800  0.82867203  0.27472266     0.08400
C3692       C  0.50963413  0.84719874  0.31750056     0.04700
C3693       C  0.50943107  0.87464512  0.32699301    -0.20000
C3694       C  0.98741099  0.89624434  0.32283433    -0.12300
C3695       C  0.96471725  0.88974343  0.30918332     0.13400
C3696       C  0.96488745  0.86221707  0.29991359    -0.22700
C3697       C  0.53343031  0.82464755  0.32256681    -0.05800
H3698       H  0.52663939  0.87931226  0.33754643     0.15000
C3699       C  0.94091097  0.91156971  0.30275072    -0.15900
H3700       H  0.94811525  0.85780643  0.28893920     0.09300
H3701       H  0.55515402  0.80265909  0.25486044     0.07100
H3702       H  0.53310834  0.79660916  0.23374625     0.08300
H3703       H  0.55128391  0.76664636  0.24804868     0.07400
H3704       H  0.93142798  0.81341819  0.30612821     0.02300
H3705       H  0.95665930  0.79479468  0.32348142     0.02700
H3706       H  0.93290594  0.77455616  0.30789506     0.06200
H3707       H  0.54834748  0.83249560  0.33438332     0.05200
H3708       H  0.54636908  0.81906019  0.30890251    -0.00500
H3709       H  0.52391660  0.80478116  0.32834846     0.00900
H3710       H  0.94052539  0.91340874  0.28596192     0.04600
H3711       H  0.94354189  0.93357930  0.30871615     0.06500
H3712       H  0.91976477  0.90421661  0.30779327     0.07400
C3713       C  0.97616804  0.62393185  0.31465654    -0.22200
C3714       C  0.49228793  0.62899324  0.29737979     0.09800
C3715       C  0.51047620  0.60616667  0.28946405     0.10200
C3716       C  0.51280321  0.57924772  0.29948244    -0.17100
C3717       C  0.49746054  0.57446525  0.31735839    -0.27600
C3718       C  0.97834330  0.59703248  0.32472336     0.18500
C3719       C  0.48966688  0.65805424  0.28751287     0.12500
C3720       C  0.52735255  0.61018160  0.27036156    -0.11900
H3721       H  0.52735430  0.56208950  0.29356533     0.12700
C3722       C  0.95968324  0.59319508  0.34301914    -0.22700
H3723       H  0.96200824  0.64146764  0.32050524     0.08400
C3724       C  0.96502367  0.66718177  0.27610520     0.04700
C3725       C  0.96465866  0.69373968  0.26574763    -0.20000
C3726       C  0.48944687  0.71083082  0.26450187    -0.12300
C3727       C  0.51248906  0.70283186  0.27861269     0.13400
C3728       C  0.51232558  0.67653231  0.28940555    -0.22700
C3729       C  0.93928234  0.64874546  0.27448660    -0.05800
H3730       H  0.94452540  0.70054479  0.25844777     0.15000
C3731       C  0.53852729  0.72008436  0.28264538    -0.15900
H3732       H  0.53057995  0.66994400  0.29909885     0.09300
H3733       H  0.94436413  0.61228996  0.34544937     0.07100
H3734       H  0.97328683  0.59067787  0.35691009     0.08300
H3735       H  0.94675619  0.57387365  0.34090336     0.07400
H3736       H  0.54271903  0.62748964  0.27261873     0.02300
H3737       H  0.51228984  0.61637080  0.25769287     0.02700
H3738       H  0.54000149  0.58998336  0.26596881     0.06200
H3739       H  0.92208914  0.65874104  0.26445211     0.05200
H3740       H  0.92983787  0.64588307  0.28968702    -0.00500
H3741       H  0.94607589  0.62714433  0.26810072     0.00900
H3742       H  0.53873058  0.72707779  0.29876571     0.04600
H3743       H  0.53928127  0.73933372  0.27323433     0.06500
H3744       H  0.55857983  0.70642870  0.27963092     0.07400
C3745       C  0.99665653  0.66427770  0.45308288    -0.22200
C3746       C  0.52111838  0.64559158  0.45080528     0.09800
C3747       C  0.54583904  0.64951947  0.46295813     0.10200
C3748       C  0.54575685  0.67296607  0.47660821    -0.17100
C3749       C  0.02163450  0.69239962  0.47831341    -0.27600
C3750       C  0.99639162  0.68749326  0.46684886     0.18500
C3751       C  0.52087486  0.62274070  0.43498217     0.12500
C3752       C  0.57241845  0.62930869  0.46119353    -0.11900
H3753       H  0.56505100  0.67677486  0.48540636     0.12700
C3754       C  0.96885293  0.70633491  0.46874093    -0.22700
H3755       H  0.97758225  0.66090460  0.44392028     0.08400
C3756       C  0.01007409  0.59551146  0.43869765     0.04700
C3757       C  0.01068209  0.57451703  0.42324923    -0.20000
C3758       C  0.52240330  0.57982033  0.40420596    -0.12300
C3759       C  0.53227507  0.60778572  0.40021323     0.13400
C3760       C  0.53132232  0.62883139  0.41569294    -0.22700
C3761       C  0.99812204  0.58848173  0.45914600    -0.05800
H3762       H  0.00258834  0.55346439  0.42640832     0.15000
C3763       C  0.54332183  0.61601156  0.37971330    -0.15900
H3764       H  0.53905381  0.65015206  0.41283778     0.09300
H3765       H  0.95088031  0.69260970  0.47276327     0.07100
H3766       H  0.96368241  0.71718841  0.45403468     0.08700
H3767       H  0.97008112  0.72322319  0.48064856     0.07400
H3768       H  0.58089906  0.62997446  0.44553091     0.02300
H3769       H  0.56694960  0.60678517  0.46474058     0.02700
H3770       H  0.58979360  0.63540074  0.47182837     0.06200
H3771       H  0.99059753  0.56607429  0.45963190     0.05200
H3772       H  0.97949643  0.60383822  0.46266380    -0.00500
H3773       H  0.51526582  0.59029226  0.47110602     0.00900
H3774       H  0.54800660  0.63932598  0.37906758     0.04600
H3775       H  0.52682651  0.61206643  0.36784592     0.06500
H3776       H  0.56374349  0.60324175  0.37634183     0.07400
C3777       C  0.54325139  0.82446237  0.44789586    -0.22200
C3778       C  0.01977889  0.84436554  0.44869432     0.09800
C3779       C  0.99963864  0.84264173  0.46449662     0.10200
C3780       C  0.00294489  0.81977063  0.47851220    -0.17100
C3781       C  0.02612221  0.79887770  0.47713652    -0.27600
C3782       C  0.54691728  0.80176107  0.46189454     0.18500
C3783       C  0.01630166  0.86648705  0.43249962     0.12500
C3784       C  0.97469398  0.86485277  0.46649230    -0.11900
H3785       H  0.98680024  0.81756205  0.49009060     0.12700
C3786       C  0.57319395  0.78094186  0.46000697    -0.22700
H3787       H  0.55866644  0.82622617  0.43576372     0.08400
C3788       C  0.53425044  0.89008949  0.43183923     0.04700
C3789       C  0.53084806  0.90994485  0.41586404    -0.20000
C3790       C  0.00948387  0.90717690  0.40065589    -0.12300
C3791       C  0.99160998  0.88337831  0.40135011     0.13400
C3792       C  0.99546028  0.86316133  0.41721121    -0.22700
C3793       C  0.55674887  0.89452773  0.44804794    -0.05800
H3794       H  0.54450490  0.92821240  0.41557964     0.15000
C3795       C  0.96893209  0.87881507  0.38530721    -0.15900
H3796       H  0.98205829  0.84470821  0.41779476     0.09300
H3797       H  0.58802266  0.78792086  0.44807375     0.07100
H3798       H  0.56691916  0.75892486  0.45580097     0.08300
H3799       H  0.58554894  0.77977848  0.47446688     0.07400
H3800       H  0.96056472  0.86440154  0.45282863     0.02300
H3801       H  0.98302582  0.88682195  0.46815747     0.02700
H3802       H  0.96134718  0.86065150  0.47994684     0.06200
H3803       H  0.56846579  0.91446899  0.44537139     0.05200
H3804       H  0.57291314  0.87581862  0.44833731    -0.00500
H3805       H  0.54621522  0.89662920  0.46307029     0.00900
H3806       H  0.97899241  0.87823613  0.37009116     0.04600
H3807       H  0.95172549  0.89653894  0.38589208     0.06500
H3808       H  0.95845023  0.85803298  0.38751492     0.07400
C3809       C  0.67701726  0.97317992  0.46005222    -0.22200
C3810       C  0.66802609  0.49409504  0.44669951     0.09800
C3811       C  0.68053084  0.52083806  0.44998615     0.10200
C3812       C  0.70308214  0.52233119  0.46412180    -0.17100
C3813       C  0.71452925  0.00091211  0.47549309    -0.27600
C3814       C  0.69999473  0.97485095  0.47398360     0.18500
C3815       C  0.64164583  0.49258777  0.43421008     0.12500
C3816       C  0.66988278  0.54780184  0.43869092    -0.11900
H3817       H  0.71311273  0.54272560  0.46649827     0.12700
C3818       C  0.70861533  0.94820240  0.48627003    -0.22700
H3819       H  0.66532014  0.95353127  0.45917454     0.08400
C3820       C  0.64210618  0.48486043  0.41350280     0.04700
C3821       C  0.61592364  0.48522991  0.40250217    -0.20000
C3822       C  0.58952480  0.49296330  0.41194266    -0.12300
C3823       C  0.59037269  0.00444147  0.43240106     0.13400
C3824       C  0.61632639  0.00427639  0.44337574    -0.22700
C3825       C  0.67013323  0.47645609  0.40311962    -0.05800
H3826       H  0.61604730  0.47931443  0.38658107     0.15000
C3827       C  0.56316651  0.01574282  0.44290996    -0.15900
H3828       H  0.61631545  0.01161390  0.45901782     0.09300
H3829       H  0.71364773  0.92962382  0.47590451     0.07100
H3830       H  0.69046285  0.94286671  0.49618954     0.08300
H3831       H  0.72800234  0.95084868  0.49588583     0.07400
H3832       H  0.64680241  0.55314925  0.44218551     0.02300
H3833       H  0.67216082  0.54417577  0.42212447     0.02700
H3834       H  0.68229533  0.56680655  0.44295214     0.06200
H3835       H  0.66667284  0.47107370  0.38687936     0.05200
H3836       H  0.68079115  0.45713926  0.41068000    -0.00500
H3837       H  0.68468469  0.49469585  0.40398200     0.00900
H3838       H  0.56771651  0.02433991  0.45829058     0.04600
H3839       H  0.54821933  0.99805947  0.44481204     0.06500
H3840       H  0.55254310  0.03372964  0.43396039     0.07400
C3841       C  0.92103129  0.50369945  0.45002127    -0.22200
C3842       C  0.89475816  0.01019920  0.44361834     0.09800
C3843       C  0.88933334  0.01623509  0.42297834     0.10200
C3844       C  0.91198540  0.01275936  0.40922769    -0.17100
C3845       C  0.93994359  0.00281735  0.41549239    -0.27600
C3846       C  0.94405175  0.50011491  0.43639616     0.18500
C3847       C  0.87066991  0.00985998  0.45799804     0.12500
C3848       C  0.85936160  0.02518148  0.41530619    -0.11900
H3849       H  0.90738997  0.01681148  0.39330882     0.12700
C3850       C  0.97349971  0.49042451  0.44468272    -0.22700
H3851       H  0.92458444  0.49902334  0.46598793     0.08400
C3852       C  0.85848967  0.98353300  0.46301642     0.04700
C3853       C  0.83302276  0.98433400  0.47423978    -0.20000
C3854       C  0.81955187  0.01081246  0.48040239    -0.12300
C3855       C  0.82847755  0.53561435  0.47471158     0.13400
C3856       C  0.85412284  0.53608755  0.46371628    -0.22700
C3857       C  0.87175152  0.95472575  0.45588691    -0.05800
H3858       H  0.82314055  0.96427875  0.47782179     0.15000
C3859       C  0.81303982  0.56421664  0.48009168    -0.15900
H3860       H  0.86226378  0.55673514  0.45943655     0.09300
H3861       H  0.98018919  0.46852252  0.43878081     0.07100
H3862       H  0.97360777  0.48898747  0.46149350     0.08300
H3863       H  0.98952736  0.50620049  0.44038073     0.07400
H3864       H  0.85168221  0.04596778  0.42248559     0.02300
H3865       H  0.84429601  0.00815948  0.41900547     0.02700
H3866       H  0.85883075  0.02834769  0.39861433     0.06200
H3867       H  0.85910371  0.93636557  0.46088414     0.05200
H3868       H  0.89399603  0.95129718  0.46215548    -0.00500
H3869       H  0.87256979  0.95434186  0.43906704     0.00900
H3870       H  0.82742120  0.57709341  0.48967270     0.04600
H3871       H  0.79274856  0.56170030  0.48848673     0.06500
H3872       H  0.80750000  0.57653018  0.46600316     0.07400
C3873       C  0.61694263  0.47274481  0.55790241    -0.22200
C3874       C  0.63942344  0.49066492  0.56250315     0.09800
C3875       C  0.63951156  0.01145019  0.58079607     0.10200
C3876       C  0.61565878  0.00980371  0.59361140    -0.17100
C3877       C  0.59113248  0.48926469  0.58824790    -0.27600
C3878       C  0.59294371  0.47151926  0.57058074     0.18500
C3879       C  0.66345540  0.49219327  0.54791042     0.12500
C3880       C  0.66190563  0.03296350  0.58541699    -0.11900
H3881       H  0.61307758  0.02477185  0.60625409     0.12700
C3882       C  0.57003777  0.45085470  0.56497599    -0.22700
H3883       H  0.61798032  0.46000564  0.54406010     0.08400
C3884       C  0.68951456  0.97450797  0.54897003     0.04700
C3885       C  0.71200143  0.97787350  0.53530636    -0.20000
C3886       C  0.71169019  0.00160890  0.52196351    -0.12300
C3887       C  0.68886536  0.52082374  0.52338447     0.13400
C3888       C  0.66556381  0.51754901  0.53645037    -0.22700
C3889       C  0.69163037  0.94970839  0.56382838    -0.05800
H3890       H  0.73052342  0.96238186  0.53547175     0.15000
C3891       C  0.69091115  0.54972273  0.51307206    -0.15900
H3892       H  0.64938852  0.53530741  0.53823681     0.09300
H3893       H  0.56598739  0.43659524  0.57805435     0.07100
H3894       H  0.57676549  0.43664093  0.55203337     0.08300
H3895       H  0.54972001  0.46302326  0.56030622     0.07400
H3896       H  0.66277872  0.04879804  0.57283582     0.02300
H3897       H  0.68342309  0.02133891  0.58730919     0.02700
H3898       H  0.65696147  0.04526931  0.59958472     0.06200
H3899       H  0.71206700  0.93615362  0.56209019     0.05200
H3900       H  0.67337011  0.93554592  0.56139912    -0.00500
H3901       H  0.69093197  0.95834198  0.57956160     0.00900
H3902       H  0.67195648  0.55383718  0.50283528     0.04600
H3903       H  0.71079398  0.55102554  0.50404682     0.06500
H3904       H  0.69095800  0.56719920  0.52468084     0.07400
C3905       C  0.91964357  0.01875761  0.55538470    -0.22200
C3906       C  0.89158132  0.01781548  0.56293816     0.09800
C3907       C  0.88546202  0.51063338  0.58330551     0.10200
C3908       C  0.90932669  0.50866673  0.59644001    -0.17100
C3909       C  0.93960153  0.01216897  0.58948136    -0.27600
C3910       C  0.94383683  0.01599304  0.56841531     0.18500
C3911       C  0.86694876  0.01700707  0.54865102     0.12500
C3912       C  0.85542334  0.51020871  0.59183431    -0.11900
H3913       H  0.90570329  0.50665488  0.61257557     0.12700
C3914       C  0.97353408  0.01762229  0.55957476    -0.22700
H3915       H  0.92258663  0.02093002  0.53918529     0.08400
C3916       C  0.84991357  0.53683192  0.54152826     0.04700
C3917       C  0.82486950  0.53450213  0.52970992    -0.20000
C3918       C  0.81686675  0.01270645  0.52475824    -0.12300
C3919       C  0.83354509  0.98729839  0.53034394     0.13400
C3920       C  0.85846831  0.98981809  0.54220529    -0.22700
C3921       C  0.85962938  0.56634865  0.54727061    -0.05800
H3922       H  0.81240779  0.55394690  0.52494761     0.15000
C3923       C  0.82545194  0.95724529  0.52438324    -0.15900
H3924       H  0.87104776  0.97036709  0.54689032     0.09300
H3925       H  0.97252685  0.02265682  0.54311363     0.07100
H3926       H  0.98613500  0.99658958  0.56139265     0.08300
H3927       H  0.98489704  0.03508860  0.56730030     0.07400
H3928       H  0.84455309  0.49110928  0.58585338     0.02300
H3929       H  0.84259848  0.53032305  0.58744410     0.02700
H3930       H  0.85577263  0.50885441  0.60864901     0.06200
H3931       H  0.84499312  0.58402709  0.54088522     0.05200
H3932       H  0.88167870  0.56894468  0.54137709    -0.00500
H3933       H  0.85999265  0.56874129  0.56401703     0.00900
H3934       H  0.84309222  0.94652594  0.51529473     0.04600
H3935       H  0.80521997  0.95721789  0.51529244     0.06500
H3936       H  0.82241847  0.94421363  0.53824724     0.07400
C3937       C  0.55062835  0.65865903  0.54757352    -0.22200
C3938       C  0.52426028  0.64610215  0.55068710     0.09800
C3939       C  0.99946557  0.65638224  0.53981690     0.10200
C3940       C  0.00146954  0.67947281  0.52619298    -0.17100
C3941       C  0.02767006  0.69268017  0.52355377    -0.27600
C3942       C  0.55266562  0.68182903  0.53410352     0.18500
C3943       C  0.52329957  0.62278036  0.56591382     0.12500
C3944       C  0.97077441  0.64344265  0.54296862    -0.11900
H3945       H  0.98233549  0.68797623  0.51810970     0.12700
C3946       C  0.58176442  0.69425596  0.53156034    -0.22700
H3947       H  0.56968775  0.65051579  0.55591091     0.08400
C3948       C  0.02865795  0.59350797  0.56062806     0.04700
C3949       C  0.02939930  0.57233622  0.57584469    -0.20000
C3950       C  0.52583483  0.57990558  0.59621224    -0.12300
C3951       C  0.52016739  0.60930246  0.60158077     0.13400
C3952       C  0.51879349  0.63046399  0.58628160    -0.22700
C3953       C  0.03432949  0.58460077  0.53896323    -0.05800
H3954       H  0.03382234  0.54970351  0.57184945     0.15000
C3955       C  0.51524116  0.61830679  0.62328585    -0.15900
H3956       H  0.51474949  0.65316097  0.59021744     0.09300
H3957       H  0.59765798  0.67683401  0.52652116     0.07100
H3958       H  0.58912352  0.70304423  0.54629707     0.08300
H3959       H  0.58154795  0.71187217  0.52015888     0.07400
H3960       H  0.96430957  0.64609086  0.55906079     0.02300
H3961       H  0.97239036  0.61998700  0.53912376     0.02700
H3962       H  0.95351768  0.65413256  0.53331057     0.06200
H3963       H  0.03830688  0.56071593  0.53746337     0.05200
H3964       H  0.05367504  0.59508372  0.53337274    -0.00500
H3965       H  0.01546111  0.59133699  0.52924379     0.00900
H3966       H  0.53512905  0.61321233  0.63234824     0.04600
H3967       H  0.49714222  0.60659776  0.62964453     0.06500
H3968       H  0.50975772  0.64198996  0.62464404     0.07400
C3969       C  0.03773906  0.84434240  0.53926300    -0.22200
C3970       C  0.01412979  0.84516561  0.55249547     0.09800
C3971       C  0.99390710  0.82352115  0.55088322     0.10200
C3972       C  0.99811932  0.80139945  0.53642243    -0.17100
C3973       C  0.02256742  0.79951515  0.52394164    -0.27600
C3974       C  0.04276204  0.82129791  0.52548344     0.18500
C3975       C  0.01140080  0.86817783  0.56837376     0.12500
C3976       C  0.96854831  0.82282547  0.56499267    -0.11900
H3977       H  0.98269827  0.78466202  0.53534223     0.12700
C3978       C  0.57056200  0.82019328  0.51372094    -0.22700
H3979       H  0.55325333  0.86121897  0.54022394     0.08400
C3980       C  0.53182836  0.86968648  0.58467872     0.04700
C3981       C  0.52800202  0.89181581  0.59928598    -0.20000
C3982       C  0.00385287  0.91196028  0.59844320    -0.12300
C3983       C  0.98335196  0.90997469  0.58239617     0.13400
C3984       C  0.98780503  0.88852335  0.56743255    -0.22700
C3985       C  0.55694430  0.84762951  0.58688083    -0.05800
H3986       H  0.54376821  0.89336805  0.61143250     0.15000
C3987       C  0.95721449  0.93082665  0.58028898    -0.15900
H3988       H  0.97276245  0.88761870  0.55478900     0.09300
H3989       H  0.57404239  0.79976819  0.50511051     0.07100
H3990       H  0.07044593  0.83873585  0.50321522     0.08300
H3991       H  0.58916921  0.82153098  0.52435289     0.07400
H3992       H  0.95361612  0.84220258  0.56262109     0.02300
H3993       H  0.47722759  0.82212148  0.58138328     0.02700
H3994       H  0.95598859  0.80336294  0.56237896     0.06200
H3995       H  0.56964774  0.85120804  0.60094163     0.05200
H3996       H  0.57174682  0.84904004  0.57386773    -0.00500
H3997       H  0.54887195  0.82546811  0.58754291     0.00900
H3998       H  0.94379752  0.92584491  0.56681477     0.04600
H3999       H  0.96414935  0.95314992  0.57837436     0.06500
H4000       H  0.94328002  0.92957803  0.59380225     0.07400
C4001       C  0.54073105  0.75067488  0.20302696    -0.22200
C4002       C  0.56419320  0.73129571  0.20736702     0.09800
C4003       C  0.56220378  0.71151905  0.22334867     0.10200
C4004       C  0.53695349  0.71203668  0.23488839    -0.17100
C4005       C  0.51437866  0.73407382  0.23279892    -0.27600
C4006       C  0.51581931  0.75236811  0.21516430     0.18500
C4007       C  0.59164361  0.73407512  0.19634913     0.12500
C4008       C  0.58740078  0.69083990  0.22909527    -0.11900
H4009       H  0.53577584  0.69494176  0.24578074     0.12700
C4010       C  0.49248555  0.77509208  0.20907513    -0.22700
H4011       H  0.54245843  0.76541170  0.19037332     0.08400
C4012       C  0.60065139  0.71496873  0.18063965     0.04700
C4013       C  0.62819969  0.71715426  0.17225105    -0.20000
C4014       C  0.64617227  0.73942205  0.17804430    -0.12300
C4015       C  0.63623909  0.75943938  0.19325806     0.13400
C4016       C  0.60933287  0.75617453  0.20230969    -0.22700
C4017       C  0.58085512  0.69301536  0.17223558    -0.05800
H4018       H  0.63551063  0.70151864  0.16085859     0.15000
C4019       C  0.65391103  0.78384363  0.20064936    -0.15900
H4020       H  0.60200809  0.77089089  0.21429825     0.09300
H4021       H  0.47349057  0.76459255  0.20273739     0.07100
H4022       H  0.49976156  0.78956028  0.19695056     0.08300
H4023       H  0.48620422  0.78928501  0.22205662     0.07400
H4024       H  0.60645037  0.70333357  0.23299573     0.02300
H4025       H  0.59305561  0.67590593  0.21639107     0.02700
H4026       H  0.58255861  0.67741479  0.24245719     0.06200
H4027       H  0.59109378  0.68019874  0.15967033     0.05200
H4028       H  0.56083292  0.70444225  0.16622032    -0.00500
H4029       H  0.57492293  0.67767509  0.18416556     0.00900
H4030       H  0.64311182  0.79634721  0.21314299     0.04600
H4031       H  0.65692495  0.79927373  0.18808885     0.06500
H4032       H  0.67519074  0.77501485  0.20648615     0.07400
C4033       C  0.92721500  0.71788353  0.21088301    -0.22200
C4034       C  0.90732554  0.74152823  0.21301106     0.09800
C4035       C  0.91390686  0.76433743  0.22609100     0.10200
C4036       C  0.94002074  0.76275671  0.23714069    -0.17100
C4037       C  0.96030999  0.73842640  0.23604241    -0.27600
C4038       C  0.95329412  0.71572227  0.22202920     0.18500
C4039       C  0.87933818  0.74179740  0.20173374     0.12500
C4040       C  0.89343658  0.79079849  0.22809992    -0.11900
H4041       H  0.94452547  0.78159878  0.24603151     0.12700
C4042       C  0.97169172  0.68806557  0.21847112    -0.22700
H4043       H  0.92199670  0.70047061  0.20063175     0.08400
C4044       C  0.87684017  0.75049748  0.18127679     0.04700
C4045       C  0.84950259  0.75196967  0.17173039    -0.20000
C4046       C  0.82441618  0.74518181  0.18219738    -0.12300
C4047       C  0.82731508  0.73551866  0.20251190     0.13400
C4048       C  0.85468070  0.73391666  0.21198515    -0.22700
C4049       C  0.90292108  0.75885711  0.16969924    -0.05800
H4050       H  0.84762909  0.75934449  0.15615750     0.15000
C4051       C  0.80192850  0.72583084  0.21407108    -0.15900
H4052       H  0.85687197  0.72679778  0.22760518     0.09300
H4053       H  0.97951397  0.68758965  0.20260920     0.07100
H4054       H  0.95845976  0.66907653  0.22086176     0.08300
H4055       H  0.99041070  0.68488578  0.22869760     0.07400
H4056       H  0.87235831  0.78441844  0.23394272     0.02300
H4057       H  0.89002249  0.80127186  0.21305938     0.02700
H4058       H  0.90189129  0.80707148  0.23871180     0.06200
H4059       H  0.89719858  0.76551229  0.15391948     0.05200
H4060       H  0.91904608  0.74012337  0.16900067    -0.00500
H4061       H  0.91282525  0.77731588  0.17739918     0.00900
H4062       H  0.80840118  0.71718938  0.22925375     0.04600
H4063       H  0.79202560  0.70827122  0.20541426     0.06500
H4064       H  0.78589079  0.74430293  0.21639073     0.07400
C4065       C  0.73278273  0.66351540  0.05176410    -0.22200
C4066       C  0.74544646  0.63648900  0.05741853     0.09800
C4067       C  0.75857855  0.63274645  0.07663822     0.10200
C4068       C  0.75797277  0.65614564  0.09015845    -0.17100
C4069       C  0.74397954  0.68305879  0.08507786    -0.27600
C4070       C  0.73155302  0.68691313  0.06536876     0.18500
C4071       C  0.74263296  0.61165710  0.04368237     0.12500
C4072       C  0.77221045  0.60374372  0.08317192    -0.11900
H4073       H  0.76770339  0.65300276  0.10505446     0.12700
C4074       C  0.71591204  0.71489606  0.05859125    -0.22700
H4075       H  0.72280538  0.66588744  0.03687479     0.08400
C4076       C  0.71658789  0.59738701  0.04248204     0.04700
C4077       C  0.71551736  0.57234136  0.03062564    -0.20000
C4078       C  0.73994732  0.56121349  0.02023211    -0.12300
C4079       C  0.76606089  0.57547023  0.02147923     0.13400
C4080       C  0.76689089  0.60096032  0.03293696    -0.22700
C4081       C  0.69023574  0.60810454  0.05413045    -0.05800
H4082       H  0.69563637  0.56112470  0.02960399     0.15000
C4083       C  0.79359229  0.56385266  0.01168486    -0.15900
H4084       H  0.78687945  0.61196425  0.03415147     0.09300
H4085       H  0.69694185  0.71990697  0.06839536     0.07100
H4086       H  0.70771948  0.71353037  0.04275137     0.08300
H4087       H  0.73076467  0.73289216  0.05920619     0.07400
H4088       H  0.79036204  0.59716957  0.07298628     0.02300
H4089       H  0.75587200  0.58709247  0.08253910     0.02700
H4090       H  0.78088837  0.60444640  0.09891244     0.06200
H4091       H  0.67195168  0.59389913  0.05178942     0.05200
H4092       H  0.68305684  0.63030796  0.04906015    -0.00500
H4093       H  0.69541653  0.60853130  0.07059915     0.00900
H4094       H  0.80045118  0.57962872  0.00026816     0.04600
H4095       H  0.79136598  0.54262677  0.00414842     0.06500
H4096       H  0.81083305  0.56074343  0.02341924     0.07400
C4097       C  0.73859531  0.88688159  0.08173373    -0.22200
C4098       C  0.73943673  0.88244935  0.06067926     0.09800
C4099       C  0.74141873  0.85413159  0.05277004     0.10200
C4100       C  0.74207838  0.83070039  0.06609251    -0.17100
C4101       C  0.74129899  0.83465833  0.08731005    -0.27600
C4102       C  0.73968656  0.86325443  0.09525134     0.18500
C4103       C  0.74011308  0.90754313  0.04697137     0.12500
C4104       C  0.74339823  0.84861081  0.03023970    -0.11900
H4105       H  0.74380112  0.80900405  0.05971342     0.12700
C4106       C  0.73893359  0.86913179  0.11771536    -0.22700
H4107       H  0.73744638  0.90890352  0.08755954     0.08400
C4108       C  0.71469739  0.92038017  0.03805860     0.04700
C4109       C  0.71685784  0.94324918  0.02427199    -0.20000
C4110       C  0.74386452  0.95332903  0.01938148    -0.12300
C4111       C  0.76931822  0.93996091  0.02802859     0.13400
C4112       C  0.76708192  0.91721043  0.04175201    -0.22700
C4113       C  0.68543138  0.91024205  0.04338725    -0.05800
H4114       H  0.69745908  0.95392726  0.01779966     0.15000
C4115       C  0.79913457  0.94919273  0.02312169    -0.15900
H4116       H  0.78652846  0.90679618  0.04836943     0.09300
H4117       H  0.73678058  0.89275639  0.12108574     0.07100
H4118       H  0.75925466  0.86026267  0.12500083     0.08300
H4119       H  0.72018264  0.85894429  0.12444421     0.07400
H4120       H  0.76291218  0.85827063  0.02417252     0.02300
H4121       H  0.72394688  0.85847514  0.02240150     0.02700
H4122       H  0.74493168  0.82504051  0.02664266     0.06200
H4123       H  0.66780225  0.92277096  0.03515871     0.05200
H4124       H  0.68181642  0.91300209  0.05991333    -0.00500
H4125       H  0.68417889  0.88697722  0.03936494     0.00900
H4126       H  0.80968925  0.95699458  0.03713200     0.04600
H4127       H  0.79897560  0.96670882  0.01164384     0.06500
H4128       H  0.81231716  0.93032991  0.01701699     0.07400
C4129       C  0.76502795  0.58940538  0.95124565    -0.22200
C4130       C  0.74384537  0.61217836  0.95283370     0.09800
C4131       C  0.72007918  0.60937827  0.96572891     0.10200
C4132       C  0.71814462  0.58375520  0.97689613    -0.17100
C4133       C  0.73932154  0.56085320  0.97531807    -0.27600
C4134       C  0.76316041  0.56374547  0.96234698     0.18500
C4135       C  0.74532301  0.63730070  0.93911253     0.12500
C4136       C  0.69646368  0.63312054  0.96730692    -0.11900
H4137       H  0.69977920  0.58133719  0.98666518     0.12700
C4138       C  0.78717210  0.54051064  0.95993179    -0.22700
H4139       H  0.78299075  0.59155830  0.94105481     0.08400
C4140       C  0.75854258  0.66291488  0.94483157     0.04700
C4141       C  0.75822570  0.68634456  0.93116913    -0.20000
C4142       C  0.74587918  0.68406844  0.91175498    -0.12300
C4143       C  0.73344535  0.65785270  0.90592228     0.13400
C4144       C  0.73317753  0.63497642  0.91977035    -0.22700
C4145       C  0.77314968  0.66527571  0.96520289    -0.05800
H4146       H  0.76787633  0.70629946  0.93552593     0.15000
C4147       C  0.71948088  0.65392816  0.88538744    -0.15900
H4148       H  0.72327585  0.61507948  0.91555955     0.09300
H4149       H  0.80815550  0.54961962  0.96388413     0.07100
H4150       H  0.78785311  0.53300610  0.94392572     0.08300
H4151       H  0.78482885  0.52138489  0.96974382     0.07400
H4152       H  0.68617317  0.63703338  0.95221122     0.02300
H4153       H  0.70562391  0.65345173  0.97274483     0.02700
H4154       H  0.67943140  0.62736014  0.97806010     0.06200
H4155       H  0.78271030  0.68662522  0.96720776     0.05200
H4156       H  0.79076745  0.64800579  0.96666702    -0.00500
H4157       H  0.75730454  0.66268817  0.97746948     0.00900
H4158       H  0.73568769  0.65543855  0.87323381     0.04600
H4159       H  0.70161879  0.67063356  0.88307245     0.06500
H4160       H  0.71016576  0.63237688  0.88388287     0.07400
C4161       C  0.75203067  0.89525970  0.91101971    -0.22200
C4162       C  0.73099569  0.89400249  0.92614659     0.09800
C4163       C  0.71156861  0.87177099  0.92572955     0.10200
C4164       C  0.71502328  0.85002511  0.91105069    -0.17100
C4165       C  0.73763763  0.84971671  0.89680005    -0.27600
C4166       C  0.75560884  0.87328974  0.89627939     0.18500
C4167       C  0.73153787  0.91457112  0.94330246     0.12500
C4168       C  0.68805023  0.87023605  0.94127752    -0.11900
H4169       H  0.70066736  0.83232017  0.91145647     0.12700
C4170       C  0.77819863  0.87553490  0.88023665    -0.22700
H4171       H  0.76641412  0.91295496  0.91126418     0.08400
C4172       C  0.75286230  0.91111382  0.95865782     0.04700
C4173       C  0.75484019  0.93271020  0.97348883    -0.20000
C4174       C  0.73520922  0.95702166  0.97374440    -0.12300
C4175       C  0.71196768  0.95878191  0.95956032     0.13400
C4176       C  0.71080477  0.93782160  0.94421347    -0.22700
C4177       C  0.77365776  0.88474118  0.95925942    -0.05800
H4178       H  0.77256820  0.93122957  0.98430256     0.15000
C4179       C  0.68821453  0.98255472  0.96011200    -0.15900
H4180       H  0.69383446  0.93978173  0.93278128     0.09300
H4181       H  0.78918963  0.89622206  0.88148802     0.07100
H4182       H  0.76790974  0.87472833  0.86498750     0.08300
H4183       H  0.79491598  0.85745407  0.88178289     0.07400
H4184       H  0.67313604  0.88990802  0.94024252     0.02300
H4185       H  0.69773833  0.86884916  0.95673417     0.02700
H4186       H  0.67510670  0.85096484  0.93892940     0.06200
H4187       H  0.78848674  0.88515663  0.97257548     0.05200
H4188       H  0.78698291  0.88368558  0.94536941    -0.00500
H4189       H  0.76140229  0.86482555  0.96025128     0.00900
H4190       H  0.68881321  0.99584959  0.94613114     0.04600
H4191       H  0.68981831  0.99702095  0.97347231     0.06500
H4192       H  0.66695521  0.97272585  0.96088595     0.07400
C4193       C  0.97708541  0.67914520  0.70990381    -0.22200
C4194       C  0.49769628  0.65811303  0.71660515     0.09800
C4195       C  0.51608386  0.66481358  0.73283777     0.10200
C4196       C  0.51314366  0.69227705  0.74206647    -0.17100
C4197       C  0.49115958  0.71363832  0.73652412    -0.27600
C4198       C  0.97356541  0.70665394  0.71923650     0.18500
C4199       C  0.50053828  0.62955890  0.70585787     0.12500
C4200       C  0.53851430  0.64266899  0.74094835    -0.11900
H4201       H  0.52866532  0.69651525  0.75376153     0.12700
C4202       C  0.95076764  0.72752632  0.70996214    -0.22700
H4203       H  0.96383198  0.67411776  0.69686560     0.08400
C4204       C  0.97891108  0.60878480  0.70696082     0.04700
C4205       C  0.98293180  0.58221571  0.69641960    -0.20000
C4206       C  0.50827280  0.57577166  0.68520797    -0.12300
C4207       C  0.53010198  0.59591444  0.68488235     0.13400
C4208       C  0.52561081  0.62280558  0.69468417    -0.22700
C4209       C  0.95208980  0.61457258  0.71938310    -0.05800
H4210       H  0.96641533  0.56654763  0.69685492     0.15000
C4211       C  0.55867422  0.58871405  0.67485886    -0.15900
H4212       H  0.54202925  0.63854073  0.69393167     0.09300
H4213       H  0.93777623  0.71693660  0.69812622     0.07100
H4214       H  0.96112577  0.74543424  0.70224853     0.08300
H4215       H  0.93525586  0.73617628  0.72141010     0.07400
H4216       H  0.55499433  0.63715775  0.72927936     0.02300
H4217       H  0.52794654  0.62270722  0.74542448     0.02700
H4218       H  0.54997578  0.65082098  0.75449195     0.06200
H4219       H  0.93808876  0.59584034  0.71904545     0.05200
H4220       H  0.93927175  0.63377706  0.71337604    -0.00500
H4221       H  0.95822222  0.61867946  0.73540912     0.00900
H4222       H  0.57328571  0.60689351  0.67602530     0.04600
H4223       H  0.55529955  0.58397995  0.65860478     0.06500
H4224       H  0.56960493  0.56946887  0.68232707     0.07400
C4225       C  0.97752478  0.85010047  0.67687153    -0.22200
C4226       C  0.99020484  0.84538238  0.69608791     0.09800
C4227       C  0.50558715  0.86763030  0.70509635     0.10200
C4228       C  0.50806781  0.89393556  0.69479828    -0.17100
C4229       C  0.99514389  0.89899294  0.67571754    -0.27600
C4230       C  0.97983145  0.87656433  0.66651001     0.18500
C4231       C  0.98695473  0.81744722  0.70690439     0.12500
C4232       C  0.51897147  0.86371242  0.72591347    -0.11900
H4233       H  0.51963573  0.91097571  0.70203256     0.12700
C4234       C  0.96647176  0.87916175  0.64563820    -0.22700
H4235       H  0.96581901  0.83296561  0.66987881     0.08400
C4236       C  0.96229060  0.81261832  0.71828293     0.04700
C4237       C  0.96202918  0.78802559  0.73079337    -0.20000
C4238       C  0.98657355  0.76824722  0.73351514    -0.12300
C4239       C  0.51041400  0.77249228  0.72012359     0.13400
C4240       C  0.50997585  0.79680164  0.70722555    -0.22700
C4241       C  0.93629778  0.83383904  0.71752260    -0.05800
H4242       H  0.94197558  0.78468902  0.73825356     0.15000
C4243       C  0.53777311  0.75307447  0.71927149    -0.15900
H4244       H  0.52867002  0.80038532  0.69799518     0.09300
H4245       H  0.94276210  0.87727109  0.64662700     0.07100
H4246       H  0.97574019  0.86141721  0.63583911     0.08300
H4247       H  0.97044123  0.89984305  0.63811289     0.07400
H4248       H  0.53536781  0.84518563  0.72582167     0.02300
H4249       H  0.50196848  0.85936659  0.73706518     0.02700
H4250       H  0.52982437  0.88334003  0.73098025     0.06200
H4251       H  0.91872248  0.82713216  0.72749417     0.05200
H4252       H  0.92768136  0.83538517  0.70177298    -0.00500
H4253       H  0.94253662  0.85559602  0.72258185     0.00900
H4254       H  0.53921822  0.74218233  0.70425458     0.04600
H4255       H  0.53975547  0.73646853  0.73113511     0.06500
H4256       H  0.55680687  0.76638771  0.72129919     0.07400
C4257       C  0.53888363  0.72734220  0.79657483    -0.22200
C4258       C  0.56011392  0.74718032  0.79343730     0.09800
C4259       C  0.55566947  0.76773477  0.77784508     0.10200
C4260       C  0.53073082  0.76748730  0.76552254    -0.17100
C4261       C  0.51047487  0.74551645  0.76665370    -0.27600
C4262       C  0.51397243  0.72652894  0.78396851     0.18500
C4263       C  0.58784819  0.74478328  0.80546942     0.12500
C4264       C  0.57802393  0.78930312  0.77343562    -0.11900
H4265       H  0.52788058  0.78483291  0.75471750     0.12700
C4266       C  0.49209112  0.70503132  0.78975731    -0.22700
H4267       H  0.54207222  0.71206108  0.80895778     0.08400
C4268       C  0.59363236  0.76332234  0.82195293     0.04700
C4269       C  0.62159287  0.76228670  0.83089030    -0.20000
C4270       C  0.64377113  0.74225583  0.82438608    -0.12300
C4271       C  0.63714446  0.72252777  0.80858606     0.13400
C4272       C  0.60953122  0.72427765  0.79937536    -0.22700
C4273       C  0.57012884  0.78368181  0.83040482    -0.05800
H4274       H  0.62612830  0.77710394  0.84313697     0.15000
C4275       C  0.65862955  0.70000606  0.80014193    -0.15900
H4276       H  0.60507320  0.70984060  0.78687039     0.09300
H4277       H  0.47191783  0.71673147  0.79491069     0.07100
H4278       H  0.49983072  0.69107649  0.80262567     0.08300
H4279       H  0.48740942  0.69025362  0.77708491     0.07400
H4280       H  0.59890833  0.77754166  0.76975801     0.02300
H4281       H  0.58117083  0.80350221  0.78674718     0.02700
H4282       H  0.57164861  0.80344566  0.76034252     0.06200
H4283       H  0.57803543  0.79635069  0.84346007     0.05200
H4284       H  0.55205577  0.77096614  0.83570291    -0.00500
H4285       H  0.56179149  0.79921319  0.81865656     0.00900
H4286       H  0.65027101  0.67810676  0.80195290     0.04600
H4287       H  0.67998153  0.69974771  0.80755347     0.06500
H4288       H  0.66170009  0.70411237  0.78374160     0.07400
C4289       C  0.91863200  0.76480377  0.78331741    -0.22200
C4290       C  0.90111962  0.74153414  0.78032799     0.09800
C4291       C  0.91127883  0.71793730  0.76845680     0.10200
C4292       C  0.93850634  0.71842709  0.75939143    -0.17100
C4293       C  0.95617141  0.74268674  0.76086305    -0.27600
C4294       C  0.94572878  0.76591196  0.77398285     0.18500
C4295       C  0.87261132  0.74192873  0.79046966     0.12500
C4296       C  0.89340911  0.69193201  0.76552739    -0.11900
H4297       H  0.94569044  0.69896684  0.75144943     0.12700
C4298       C  0.96147665  0.79296662  0.77845829    -0.22700
H4299       H  0.91084453  0.78261668  0.79295882     0.08400
C4300       C  0.87025072  0.73243333  0.81059832     0.04700
C4301       C  0.84326099  0.73475247  0.82004929    -0.20000
C4302       C  0.81830227  0.74701429  0.81010289    -0.12300
C4303       C  0.82061800  0.75538331  0.78949662     0.13400
C4304       C  0.84775947  0.75261488  0.77998135    -0.22700
C4305       C  0.89638735  0.72034235  0.82225372    -0.05800
H4306       H  0.84204892  0.72773230  0.83566443     0.15000
C4307       C  0.79500169  0.76767023  0.77742774    -0.15900
H4308       H  0.84981076  0.75949001  0.76438573     0.09300
H4309       H  0.96734035  0.79355869  0.79481096     0.07100
H4310       H  0.94710750  0.81242742  0.77483296     0.08300
H4311       H  0.98114207  0.79502484  0.76960106     0.07400
H4312       H  0.87244649  0.69878107  0.75820399     0.02300
H4313       H  0.88925808  0.68193329  0.78042469     0.02700
H4314       H  0.90441694  0.67510905  0.75577461     0.06200
H4315       H  0.89080164  0.71386671  0.83787455     0.05200
H4316       H  0.91269610  0.73696726  0.82340119    -0.00500
H4317       H  0.90606227  0.70089619  0.81436177     0.00900
H4318       H  0.80074835  0.77194627  0.76144760     0.04600
H4319       H  0.78677080  0.78861640  0.78412544     0.06500
H4320       H  0.77771879  0.75198956  0.77724785     0.07400
C4321       C  0.84407381  0.98223553  0.73709040    -0.22200
C4322       C  0.84974741  0.00341314  0.72291737     0.09800
C4323       C  0.82400542  0.52205348  0.71535871     0.10200
C4324       C  0.79648212  0.52001134  0.72371271    -0.17100
C4325       C  0.79318203  0.00062666  0.73971376    -0.27600
C4326       C  0.81618736  0.97916656  0.74475623     0.18500
C4327       C  0.87834566  0.00171517  0.71293095     0.12500
C4328       C  0.82877919  0.54521803  0.69987742    -0.11900
H4329       H  0.77963366  0.53585543  0.71895264     0.12700
C4330       C  0.81370110  0.95102981  0.75621386    -0.22700
H4331       H  0.86150267  0.96654393  0.74122907     0.08400
C4332       C  0.90090299  0.51127073  0.72146526     0.04700
C4333       C  0.92747307  0.50824777  0.71114595    -0.20000
C4334       C  0.93165492  0.99588099  0.69247018    -0.12300
C4335       C  0.90701170  0.98259597  0.68463268     0.13400
C4336       C  0.88082309  0.98574205  0.69497246    -0.22700
C4337       C  0.89968050  0.52499116  0.74218325    -0.05800
H4338       H  0.94683271  0.51605018  0.71810926     0.15000
C4339       C  0.90812360  0.96418246  0.66567944    -0.15900
H4340       H  0.86198451  0.97554804  0.68905135     0.09300
H4341       H  0.82292616  0.43256001  0.74737220     0.07100
H4342       H  0.79176675  0.94362608  0.75757562     0.08300
H4343       H  0.82419991  0.95243637  0.77135150     0.07400
H4344       H  0.83973279  0.03444195  0.68596987     0.02300
H4345       H  0.84561392  0.55947154  0.70552255     0.02700
H4346       H  0.80875949  0.55899981  0.69681719     0.06200
H4347       H  0.92123079  0.53167070  0.74725576     0.05200
H4348       H  0.89204295  0.50931656  0.75337936    -0.00500
H4349       H  0.88454538  0.54456519  0.74188523     0.00900
H4350       H  0.92340495  0.94511967  0.66805878     0.04600
H4351       H  0.91464612  0.97694326  0.65244588     0.06500
H4352       H  0.88676259  0.95573666  0.66191296     0.07400
C4353       C  0.71104869  0.98243595  0.70521894    -0.22200
C4354       C  0.68887822  0.50731057  0.70444987     0.09800
C4355       C  0.69575551  0.53264957  0.71476062     0.10200
C4356       C  0.72022706  0.53210457  0.72748830    -0.17100
C4357       C  0.73704110  0.50603990  0.73212827    -0.27600
C4358       C  0.73528840  0.98197722  0.71830653     0.18500
C4359       C  0.66062958  0.50516435  0.69386201     0.12500
C4360       C  0.67673677  0.56019238  0.71281766    -0.11900
H4361       H  0.72541261  0.55261625  0.73398420     0.12700
C4362       C  0.75417255  0.95434347  0.71756578    -0.22700
H4363       H  0.70673635  0.96326054  0.69639149     0.08400
C4364       C  0.65635713  0.51224701  0.67318735     0.04700
C4365       C  0.62856215  0.51098939  0.66448432    -0.20000
C4366       C  0.60527258  0.50194815  0.67588191    -0.12300
C4367       C  0.61295128  0.99102375  0.69596108     0.13400
C4368       C  0.64064164  0.99289495  0.70451928    -0.22700
C4369       C  0.68111370  0.52082306  0.66034343    -0.05800
H4370       H  0.62505003  0.51672434  0.64868651     0.15000
C4371       C  0.58925045  0.97994561  0.70880896    -0.15900
H4372       H  0.64463978  0.98624043  0.72009842     0.09300
H4373       H  0.76302385  0.95128890  0.70207183     0.07100
H4374       H  0.74125568  0.93555475  0.72124620     0.08300
H4375       H  0.77235664  0.95400006  0.72808051     0.07400
H4376       H  0.65460577  0.55634278  0.71806241     0.02300
H4377       H  0.67563695  0.56731883  0.69676776     0.02700
H4378       H  0.68499922  0.57813893  0.72206176     0.06200
H4379       H  0.67411909  0.52544437  0.64445964     0.05200
H4380       H  0.69816873  0.50289271  0.66011098    -0.00500
H4381       H  0.69038655  0.54059088  0.66664901     0.00900
H4382       H  0.59694624  0.97465180  0.72444344     0.04600
H4383       H  0.58127008  0.95984984  0.70202820     0.06500
H4384       H  0.57114452  0.99672496  0.70988665     0.07400
C4385       C  0.73320413  0.57619857  0.78005785    -0.22200
C4386       C  0.75622972  0.59413553  0.77775597     0.09800
C4387       C  0.78144747  0.58285866  0.76822843     0.10200
C4388       C  0.78294367  0.55412123  0.76117363    -0.17100
C4389       C  0.75888891  0.53624117  0.76128315    -0.27600
C4390       C  0.73374747  0.54792490  0.77185682     0.18500
C4391       C  0.75443986  0.62372264  0.78701240     0.12500
C4392       C  0.80685134  0.60131267  0.76502979    -0.11900
H4393       H  0.80378519  0.54601198  0.75589988     0.12700
C4394       C  0.70620188  0.53247243  0.77435261    -0.22700
H4395       H  0.71418098  0.58463224  0.78808084     0.08400
C4396       C  0.73552429  0.64655250  0.77965103     0.04700
C4397       C  0.73351113  0.67332687  0.79009696    -0.20000
C4398       C  0.74974945  0.67772971  0.80788992    -0.12300
C4399       C  0.77050579  0.65543231  0.81410448     0.13400
C4400       C  0.77202612  0.62874229  0.80384863    -0.22700
C4401       C  0.71754913  0.64269207  0.76079100    -0.05800
H4402       H  0.71854352  0.69051167  0.78464517     0.15000
C4403       C  0.79159662  0.65928793  0.83137826    -0.15900
H4404       H  0.78674617  0.61128472  0.80929879     0.09300
H4405       H  0.68762675  0.54656804  0.76865171     0.07100
H4406       H  0.70288337  0.52795306  0.79066193     0.08300
H4407       H  0.70550743  0.51205814  0.76587213     0.07400
H4408       H  0.81634701  0.60755820  0.77977911     0.02300
H4409       H  0.79966322  0.62120239  0.75649192     0.02700
H4410       H  0.82423244  0.58966074  0.75619627     0.06200
H4411       H  0.70447919  0.66287164  0.75682702     0.05200
H4412       H  0.70247802  0.62520795  0.76307132    -0.00500
H4413       H  0.73190007  0.63686315  0.74784333     0.00900
H4414       H  0.78026823  0.65976625  0.84611678     0.04600
H4415       H  0.80290231  0.67961095  0.82923781     0.06500
H4416       H  0.80837823  0.64110567  0.83215519     0.07400
C4417       C  0.76933608  0.95516889  0.79799217    -0.22200
C4418       C  0.75062078  0.93356719  0.79282252     0.09800
C4419       C  0.73235151  0.93784125  0.77582789     0.10200
C4420       C  0.73475862  0.96243169  0.76364067    -0.17100
C4421       C  0.75643371  0.98258553  0.76673532    -0.27600
C4422       C  0.77231705  0.97974064  0.78559040     0.18500
C4423       C  0.75144412  0.90594308  0.80464750     0.12500
C4424       C  0.71091580  0.91581900  0.76999993    -0.11900
H4425       H  0.71917884  0.96520944  0.75142748     0.12700
C4426       C  0.79337870  0.00137027  0.79286265    -0.22700
H4427       H  0.78245055  0.95224707  0.81165272     0.08400
C4428       C  0.77456422  0.88479909  0.80262962     0.04700
C4429       C  0.77352385  0.85805326  0.81265658    -0.20000
C4430       C  0.74958535  0.85136643  0.82430902    -0.12300
C4431       C  0.72661845  0.87280632  0.82666079     0.13400
C4432       C  0.72803718  0.89989019  0.81697870    -0.22700
C4433       C  0.79988868  0.88992383  0.78923118    -0.05800
H4434       H  0.79112675  0.84178001  0.81071492     0.15000
C4435       C  0.70076811  0.86758227  0.83953702    -0.15900
H4436       H  0.71046264  0.91626195  0.81864388     0.09300
H4437       H  0.80531199  0.99375282  0.80672290     0.07100
H4438       H  0.78161008  0.02209050  0.79702206     0.08300
H4439       H  0.80838798  0.50475864  0.78086880     0.07400
H4440       H  0.69477399  0.91408915  0.78217034     0.02300
H4441       H  0.72238661  0.89429879  0.76757503     0.02700
H4442       H  0.69901828  0.92187258  0.75577930     0.06200
H4443       H  0.81570765  0.87088776  0.78896028     0.05200
H4444       H  0.81132075  0.90885852  0.79485351    -0.00500
H4445       H  0.79215871  0.89405675  0.77346227     0.00900
H4446       H  0.68578751  0.88721943  0.84052643     0.04600
H4447       H  0.70795742  0.86167235  0.85516004     0.06500
H4448       H  0.68843775  0.84991552  0.83290173     0.07400
C4449       C  0.57681102  0.78609422  0.04709185    -0.22200
C4450       C  0.59429426  0.76057264  0.04978113     0.09800
C4451       C  0.58961019  0.73616408  0.03748117     0.10200
C4452       C  0.56623228  0.73725044  0.02367190    -0.17100
C4453       C  0.54774359  0.76235087  0.02172362    -0.27600
C4454       C  0.55372366  0.78737480  0.03315353     0.18500
C4455       C  0.61606212  0.75941909  0.06647086     0.12500
C4456       C  0.60901221  0.70890282  0.03919717    -0.11900
H4457       H  0.56151869  0.71797687  0.01514471     0.12700
C4458       C  0.53574569  0.81557677  0.03139958    -0.22700
H4459       H  0.58068296  0.80492857  0.05638741     0.08400
C4460       C  0.64237924  0.77301502  0.06488529     0.04700
C4461       C  0.66184772  0.77179838  0.08133586    -0.20000
C4462       C  0.65596667  0.75679149  0.09924689    -0.12300
C4463       C  0.62927704  0.74369848  0.10091936     0.13400
C4464       C  0.60968555  0.74518077  0.08451638    -0.22700
C4465       C  0.65035661  0.78790742  0.04560822    -0.05800
H4466       H  0.68243050  0.78149797  0.07979265     0.15000
C4467       C  0.62046256  0.72878610  0.11990767    -0.15900
H4468       H  0.58917286  0.73521820  0.08582634     0.09300
H4469       H  0.54981589  0.83316835  0.02706957     0.07100
H4470       H  0.52570252  0.82105629  0.04624142     0.08300
H4471       H  0.51830334  0.81487669  0.01983912     0.07400
H4472       H  0.60784184  0.69977284  0.05469632     0.02300
H4473       H  0.63166905  0.71397032  0.03607263     0.02700
H4474       H  0.60270688  0.69205067  0.02821839     0.06200
H4475       H  0.67208313  0.79678642  0.04675485     0.05200
H4476       H  0.63439508  0.80617571  0.04224910    -0.00500
H4477       H  0.65058578  0.77215512  0.03284136     0.00900
H4478       H  0.59960035  0.73890565  0.12531987     0.04600
H4479       H  0.63646790  0.73077474  0.13224882     0.06500
H4480       H  0.61786996  0.70542616  0.11677180     0.07400
C4481       C  0.90310695  0.78599546  0.04389256    -0.22200
C4482       C  0.89784771  0.76038748  0.05424684     0.09800
C4483       C  0.91470325  0.73462826  0.05027029     0.10200
C4484       C  0.93676579  0.73511280  0.03600767    -0.17100
C4485       C  0.94221341  0.76075835  0.02576774    -0.27600
C4486       C  0.92546303  0.78663030  0.02983937     0.18500
C4487       C  0.87444090  0.76103379  0.06917194     0.12500
C4488       C  0.90978711  0.70689290  0.06137668    -0.11900
H4489       H  0.95017176  0.71553711  0.03301359     0.12700
C4490       C  0.93117572  0.81530164  0.02020940    -0.22700
H4491       H  0.89004047  0.80571420  0.04711763     0.08400
C4492       C  0.87806063  0.77251991  0.08876675     0.04700
C4493       C  0.85471801  0.77353914  0.10212150    -0.20000
C4494       C  0.82784438  0.76327623  0.09632160    -0.12300
C4495       C  0.82468661  0.75101384  0.07668480     0.13400
C4496       C  0.84809200  0.75018313  0.06339703    -0.22700
C4497       C  0.90652797  0.78364504  0.09554117    -0.05800
H4498       H  0.85743977  0.78271892  0.11711823     0.15000
C4499       C  0.79675605  0.73950031  0.06917885    -0.15900
H4500       H  0.84580483  0.74132544  0.04825339     0.09300
H4501       H  0.93548437  0.83141851  0.03223614     0.07100
H4502       H  0.91192110  0.82324267  0.01124348     0.08300
H4503       H  0.95005522  0.81399131  0.01003007     0.07400
H4504       H  0.88762708  0.70010133  0.05816106     0.02300
H4505       H  0.91243306  0.71032157  0.07794613     0.02700
H4506       H  0.92534348  0.68894701  0.05668902     0.06200
H4507       H  0.90578129  0.79148146  0.11147865     0.05200
H4508       H  0.91213284  0.80198574  0.08576030    -0.00500
H4509       H  0.92376880  0.76596677  0.09447057     0.00900
H4510       H  0.79831767  0.73158281  0.05328277     0.04600
H4511       H  0.77924789  0.75692425  0.06963093     0.06500
H4512       H  0.79118175  0.72088586  0.07866319     0.07400
C4513       C  0.63726048  0.75795642  0.93831304    -0.22200
C4514       C  0.60922515  0.75373926  0.93171710     0.09800
C4515       C  0.60369640  0.74628886  0.91134012     0.10200
C4516       C  0.62693057  0.74217265  0.89794814    -0.17100
C4517       C  0.65519083  0.74605053  0.90460740    -0.27600
C4518       C  0.66040356  0.75443234  0.92505156     0.18500
C4519       C  0.58640434  0.75541324  0.94698152     0.12500
C4520       C  0.57327828  0.74349325  0.90372640    -0.11900
H4521       H  0.62295867  0.73712937  0.88213684     0.12700
C4522       C  0.69021763  0.75929644  0.93336110    -0.22700
H4523       H  0.64099764  0.76367252  0.95404984     0.08400
C4524       C  0.57910829  0.73030387  0.95739186     0.04700
C4525       C  0.55710300  0.73254757  0.97172122    -0.20000
C4526       C  0.54309577  0.75946703  0.97623264    -0.12300
C4527       C  0.55141463  0.78488272  0.96651462     0.13400
C4528       C  0.57312181  0.78251860  0.95190988    -0.22700
C4529       C  0.59461084  0.70124752  0.95336383    -0.05800
H4530       H  0.55033915  0.71316981  0.97912184     0.15000
C4531       C  0.53761685  0.81457659  0.97100609    -0.15900
H4532       H  0.57955519  0.80180677  0.94420565     0.09300
H4533       H  0.70345122  0.73852959  0.93312760     0.07100
H4534       H  0.68956100  0.76675381  0.94939215     0.08300
H4535       H  0.70069538  0.77620108  0.92461969     0.07400
H4536       H  0.56054321  0.76438148  0.90597926     0.02300
H4537       H  0.56297689  0.72614833  0.91216225     0.02700
H4538       H  0.57272363  0.73801257  0.88732321     0.06200
H4539       H  0.58623209  0.68388919  0.96291175     0.05200
H4540       H  0.61801706  0.70245559  0.95678581    -0.00500
H4541       H  0.59180488  0.69505864  0.93722644     0.00900
H4542       H  0.55438731  0.82897756  0.97654650     0.04600
H4543       H  0.52063756  0.81424210  0.98268427     0.06500
H4544       H  0.52758926  0.82394859  0.95694753     0.07400
C4545       C  0.90141245  0.78187002  0.95572563    -0.22200
C4546       C  0.88356619  0.75861433  0.95820541     0.09800
C4547       C  0.89200691  0.73652490  0.97224953     0.10200
C4548       C  0.91830461  0.73788616  0.98304086    -0.17100
C4549       C  0.93636025  0.76099761  0.98037858    -0.27600
C4550       C  0.92740507  0.78358821  0.96675015     0.18500
C4551       C  0.85706689  0.75729014  0.94510325     0.12500
C4552       C  0.87319286  0.71160651  0.97596703    -0.11900
H4553       H  0.92509012  0.72049075  0.99335103     0.12700
C4554       C  0.94437447  0.81009844  0.96360394    -0.22700
H4555       H  0.89503333  0.79886496  0.94497756     0.08400
C4556       C  0.83250615  0.77656001  0.94764319     0.04700
C4557       C  0.80939840  0.77634060  0.93350944    -0.20000
C4558       C  0.81013360  0.75735505  0.91670162    -0.12300
C4559       C  0.83426135  0.73695556  0.91490974     0.13400
C4560       C  0.85728016  0.73737290  0.92901977    -0.22700
C4561       C  0.83067692  0.79732646  0.96531319    -0.05800
H4562       H  0.79106861  0.79180269  0.93527120     0.15000
C4563       C  0.83612703  0.71439477  0.89830868    -0.15900
H4564       H  0.87605049  0.72247117  0.92719140     0.09300
H4565       H  0.93039402  0.82989346  0.96688935     0.07100
H4566       H  0.95150587  0.81086854  0.94760402     0.08300
H4567       H  0.96366474  0.81077183  0.97357804     0.07400
H4568       H  0.87071937  0.69887991  0.96182698     0.02300
H4569       H  0.85156867  0.72009484  0.98110552     0.02700
H4570       H  0.88257112  0.69668311  0.98781183     0.06200
H4571       H  0.80977692  0.81040264  0.96541135     0.05200
H4572       H  0.84829113  0.81254557  0.96454679    -0.00500
H4573       H  0.83270012  0.78496598  0.97973467     0.00900
H4574       H  0.85522063  0.69893090  0.90033748     0.04600
H4575       H  0.83830305  0.72492195  0.88334378     0.06500
H4576       H  0.81654299  0.70163924  0.89841157     0.07400
C4577       C  0.86962353  0.49241496  0.30924206    -0.22200
C4578       C  0.86844668  0.00057585  0.29005463     0.09800
C4579       C  0.89291382  0.01353666  0.28233605     0.10200
C4580       C  0.91945641  0.01021055  0.29293728    -0.17100
C4581       C  0.92154681  0.99517667  0.31141442    -0.27600
C4582       C  0.89566678  0.48922963  0.32010456     0.18500
C4583       C  0.84019280  0.00174583  0.27930500     0.12500
C4584       C  0.89074592  0.03139360  0.26325497    -0.11900
H4585       H  0.93835171  0.02005809  0.28713139     0.12700
C4586       C  0.89554448  0.47409864  0.34038904    -0.22700
H4587       H  0.85018594  0.48410071  0.31547424     0.08400
C4588       C  0.83378419  0.98080217  0.26482172     0.04700
C4589       C  0.80603465  0.98124641  0.25620654    -0.20000
C4590       C  0.78273430  0.00070739  0.26263454    -0.12300
C4591       C  0.78989302  0.52525468  0.27613588     0.13400
C4592       C  0.81810946  0.52649518  0.28413887    -0.22700
C4593       C  0.85623507  0.95750947  0.25860502    -0.05800
H4594       H  0.80348523  0.96600349  0.24405758     0.15000
C4595       C  0.76913634  0.54969143  0.28281863    -0.15900
H4596       H  0.82291085  0.54361025  0.29473402     0.09300
H4597       H  0.91110370  0.45491932  0.34032768     0.07100
H4598       H  0.87395242  0.46628548  0.34393013     0.08300
H4599       H  0.90113405  0.48921222  0.35273382     0.07400
H4600       H  0.87454909  0.04985066  0.26529837     0.02300
H4601       H  0.88395672  0.01792179  0.25030537     0.02700
H4602       H  0.91174427  0.04034305  0.25945517     0.06200
H4603       H  0.84768711  0.94244006  0.24716045     0.05200
H4604       H  0.86344414  0.94449153  0.27205824    -0.00500
H4605       H  0.87516118  0.96748672  0.25197249     0.00900
H4606       H  0.76843167  0.55042111  0.29964432     0.04600
H4607       H  0.74700037  0.54751633  0.27754028     0.06500
H4608       H  0.77647581  0.57065944  0.27717992     0.07400
C4609       C  0.67509259  0.98838379  0.27359013    -0.22200
C4610       C  0.67832851  0.49140412  0.29223797     0.09800
C4611       C  0.70607077  0.49518648  0.30019870     0.10200
C4612       C  0.72970537  0.49563030  0.28701230    -0.17100
C4613       C  0.72641465  0.49418341  0.26559838    -0.27600
C4614       C  0.69781305  0.98853436  0.25965801     0.18500
C4615       C  0.65193626  0.49437348  0.30490790     0.12500
C4616       C  0.71059571  0.49962621  0.32261228    -0.11900
H4617       H  0.75064920  0.49782728  0.29382190     0.12700
C4618       C  0.68974796  0.98372485  0.23763562    -0.22700
H4619       H  0.65321337  0.98557994  0.26826625     0.08400
C4620       C  0.63369879  0.52000649  0.30448131     0.04700
C4621       C  0.60776953  0.52125046  0.31538019    -0.20000
C4622       C  0.59946474  0.49739528  0.32664566    -0.12300
C4623       C  0.61798616  0.97149622  0.32705134     0.13400
C4624       C  0.64465790  0.97088899  0.31707338    -0.22700
C4625       C  0.64136884  0.54591526  0.29224043    -0.05800
H4626       H  0.59329549  0.54053661  0.31436518     0.15000
C4627       C  0.60925612  0.94411639  0.33717621    -0.15900
H4628       H  0.65782595  0.95073630  0.31603270     0.09300
H4629       H  0.66597287  0.98391203  0.23530593     0.07100
H4630       H  0.69841177  0.96209062  0.23248525     0.08300
H4631       H  0.69756954  0.00100536  0.22783610     0.07400
H4632       H  0.70388105  0.48038079  0.33102763     0.02300
H4633       H  0.69750970  0.51917416  0.32772427     0.02700
H4634       H  0.73359544  0.50275553  0.32643193     0.06200
H4635       H  0.62505228  0.56436794  0.29386473     0.05200
H4636       H  0.64252231  0.54000853  0.27594143    -0.00500
H4637       H  0.66259545  0.55328365  0.29742512     0.00900
H4638       H  0.59037249  0.93550289  0.32922230     0.04600
H4639       H  0.60392128  0.94865926  0.35329610     0.06500
H4640       H  0.62692094  0.92677586  0.33686790     0.07400
C4641       C  0.74799546  0.63999344  0.22118406    -0.22200
C4642       C  0.74799790  0.61439846  0.20967270     0.09800
C4643       C  0.74364694  0.61620650  0.18859139     0.10200
C4644       C  0.74260669  0.64344994  0.17927440    -0.17100
C4645       C  0.74358110  0.66954699  0.19050098    -0.27600
C4646       C  0.74497259  0.66759737  0.21206965     0.18500
C4647       C  0.74911694  0.58599336  0.22018585     0.12500
C4648       C  0.73806900  0.58964001  0.17604087    -0.11900
H4649       H  0.73972434  0.64423896  0.16295486     0.12700
C4650       C  0.74285870  0.69314704  0.22640791    -0.22700
H4651       H  0.74969376  0.63836511  0.23756512     0.08400
C4652       C  0.77324673  0.56626232  0.21937663     0.04700
C4653       C  0.77176787  0.53881343  0.22824679    -0.20000
C4654       C  0.74767292  0.53056298  0.23971562    -0.12300
C4655       C  0.72378054  0.55231231  0.24134907     0.13400
C4656       C  0.72500881  0.57881588  0.23098072    -0.22700
C4657       C  0.80119585  0.57468463  0.21014825    -0.05800
H4658       H  0.79040833  0.52371677  0.22674377     0.15000
C4659       C  0.69662542  0.55051725  0.25379303    -0.15900
H4660       H  0.70682485  0.59472327  0.23141142     0.09300
H4661       H  0.76201761  0.69224111  0.23667278     0.07100
H4662       H  0.72325981  0.69183455  0.23582926     0.08300
H4663       H  0.74167522  0.71455402  0.21907114     0.07400
H4664       H  0.71869954  0.57941697  0.18185122     0.02300
H4665       H  0.75672203  0.57355119  0.17674912     0.02700
H4666       H  0.73399042  0.59514970  0.15984183     0.06200
H4667       H  0.81832832  0.55687810  0.21128846     0.05200
H4668       H  0.80896422  0.59386405  0.21830219    -0.00500
H4669       H  0.79819137  0.58025181  0.19392042     0.00900
H4670       H  0.70115853  0.54422830  0.26966902     0.04600
H4671       H  0.68122040  0.53663825  0.24620754     0.06500
H4672       H  0.68443003  0.57188472  0.25516184     0.07400
C4673       C  0.75676408  0.92128910  0.22880839    -0.22200
C4674       C  0.75518377  0.92656564  0.20802438     0.09800
C4675       C  0.75174552  0.95528125  0.20102567     0.10200
C4676       C  0.75042289  0.97831988  0.21505904    -0.17100
C4677       C  0.75242575  0.97371822  0.23636587    -0.27600
C4678       C  0.75495212  0.94393045  0.24309133     0.18500
C4679       C  0.75485423  0.90115321  0.19418261     0.12500
C4680       C  0.74933634  0.96156759  0.17864999    -0.11900
H4681       H  0.74678423  0.99986207  0.20893760     0.12700
C4682       C  0.75537143  0.93489406  0.26517200    -0.22700
H4683       H  0.75864755  0.89891484  0.23389735     0.08400
C4684       C  0.78041453  0.88494954  0.18889628     0.04700
C4685       C  0.77857012  0.85845871  0.17848737    -0.20000
C4686       C  0.75166450  0.84743098  0.17358830    -0.12300
C4687       C  0.72603999  0.86471309  0.17804437     0.13400
C4688       C  0.72810344  0.89131257  0.18820603    -0.22700
C4689       C  0.80956963  0.89540081  0.19463550    -0.05800
H4690       H  0.79829316  0.84573933  0.17496861     0.15000
C4691       C  0.69628555  0.85542101  0.17257100    -0.15900
H4692       H  0.70861003  0.90402417  0.19232974     0.09300
H4693       H  0.76101499  0.91130640  0.26699542     0.07100
H4694       H  0.73362425  0.93876063  0.27178808     0.08300
H4695       H  0.77149759  0.94625861  0.27416866     0.07400
H4696       H  0.73014543  0.95144399  0.17217159     0.02300
H4697       H  0.76904031  0.95255014  0.17088898     0.02700
H4698       H  0.74701737  0.98524506  0.17555100     0.06200
H4699       H  0.82743445  0.88033332  0.18921441     0.05200
H4700       H  0.81149979  0.89715454  0.21137879    -0.00500
H4701       H  0.81215650  0.91704931  0.18780094     0.00900
H4702       H  0.69133004  0.83610649  0.18156272     0.04600
H4703       H  0.69498868  0.85045217  0.15613053     0.06500
H4704       H  0.67924580  0.87266167  0.17592061     0.07400
loop_ 
_geom_bond_atom_site_label_1 
_geom_bond_atom_site_label_2 
_geom_bond_distance 
_geom_bond_site_symmetry_2 
_ccdc_geom_bond_type 
C1         C1085   1.571       .  S
C1         C1126   1.590   1_565  S
C1         C2238   1.598   1_565  S
C1         C2325   1.580       .  S
C2            C3   1.412   1_554  A
C2            C7   1.397       .  A
C2          C957   1.468       .  S
C3            C4   1.403       .  A
C3         C1021   1.492       .  S
C4         C2357   1.405       .  A
C4            H9   1.085       .  S
C5            C6   1.410   1_556  A
C5         C2356   1.405   1_455  A
C5          C998   1.470       .  S
C6         C2359   1.397   1_455  A
C6          C925   1.483       .  S
C7         C2358   1.396       .  A
C7            H8   1.086       .  S
C10         C829   1.600       .  S
C10         C861   1.593       .  S
C10        C1973   1.586       .  S
C10        C2069   1.583   1_545  S
C11         C710   1.593       .  S
C11         C765   1.585       .  S
C11        C3021   1.593       .  S
C11        C3085   1.604       .  S
C12          C13   1.412   1_554  A
C12        C1193   1.398       .  A
C12         C582   1.478       .  S
C13        C1190   1.405       .  A
C13         C646   1.478       .  S
C14          C15   1.398       .  A
C14        C1189   1.403   1_545  A
C14          H19   1.085       .  S
C15          C16   1.407   1_556  A
C15         C605   1.476       .  S
C16          C17   1.395       .  A
C16         C550   1.473       .  S
C17        C1188   1.399   1_545  A
C17          H18   1.085       .  S
O20          C28   1.265       .  A
O20         Co40   1.987       .  S
O21          C29   1.250       .  A
O21         Co41   1.947       .  S
O22          C30   1.268       .  A
O22         Co42   2.031       .  S
O23          C31   1.281       .  A
O23         Co43   2.052       .  S
O24          C30   1.253       .  A
O24         Co41   1.956       .  S
O25          C31   1.260       .  A
O25         Co40   1.945       .  S
O26          C29   1.274       .  A
O26         Co43   2.051       .  S
O27          C28   1.273       .  A
O27         Co42   2.035       .  S
C28        C1030   1.502       .  S
C29         C870   1.501       .  S
C30         C614   1.472       .  S
C31         C774   1.498       .  S
O32          C45   1.268       .  A
O32         Co40   2.022       .  S
O33          C46   1.282       .  A
O33         Co41   2.082       .  S
O34          C47   1.240       .  A
O34         Co42   1.903       .  S
O35          C48   1.263       .  A
O35         Co43   1.985       .  S
O36          C48   1.275       .  A
O36         Co41   2.042       .  S
O37          C47   1.281       .  A
O37         Co40   2.079       .  S
O38          C45   1.259       .  A
O38         Co43   1.983       .  S
O39          C46   1.242       .  A
O39         Co42   1.894       .  S
Co40         O44   2.110       .  S
Co41         O44   2.090       .  S
Co42         O44   1.951       .  S
Co43         O44   2.072       .  S
C45         C902   1.497       .  S
C46         C989   1.465       .  S
C47         C637   1.477       .  S
C48         C742   1.503       .  S
O49          C57   1.266       .  A
O49         Co69   1.969       .  S
O50          C58   1.254       .  A
O50         Co70   1.973       .  S
O51          C59   1.273       .  A
O51         Co71   2.042       .  S
O52          C60   1.292       .  A
O52         Co72   2.095       .  S
O53          C59   1.257       .  A
O53         Co70   1.951       .  S
O54          C60   1.266       .  A
O54         Co69   1.897       .  S
O55          C58   1.254       .  A
O55         Co72   1.996       .  S
O56          C57   1.280       .  A
O56         Co71   2.038       .  S
C57         C518   1.493       .  S
C58         C541   1.485       .  S
C59        C1117   1.500       .  S
C60         C966   1.482       .  S
O61          C74   1.298       .  A
O61         Co69   2.121       .  S
O62          C75   1.273       .  A
O62         Co70   2.026       .  S
O63          C76   1.258       .  A
O63         Co71   1.980       .  S
O64          C77   1.264       .  A
O64         Co72   1.954       .  S
O65          C77   1.282       .  A
O65         Co70   2.044       .  S
O66          C76   1.264       .  A
O66         Co69   2.005       .  S
O67          C74   1.256       .  A
O67         Co72   1.873       .  S
O68          C75   1.262       .  A
O68         Co71   1.970       .  S
Co69         O73   2.018       .  S
Co70         O73   2.025       .  S
Co71         O73   2.035       .  S
Co72         O73   1.995       .  S
C74         C573   1.485       .  S
C75         C486   1.498       .  S
C76        C1158   1.493       .  S
C77         C934   1.481       .  S
O78          C86   1.260       .  A
O78         Co98   1.998       .  S
O79          C87   1.278       .  A
O79         Co99   2.033       .  S
O80        C2440   1.265   1_455  A
O80       Co1276   1.972       .  S
O81        C1265   1.258       .  A
O81       Co1277   1.871       .  S
O82          C88   1.277       .  A
O82         Co99   2.043       .  S
O83          C89   1.301   1_545  A
O83         Co98   2.123       .  S
O84        C2439   1.266       .  A
O84       Co1277   1.965       .  S
O85        C1262   1.260       .  A
O85       Co1276   1.982       .  S
C86         C838   1.483       .  S
C86        O1261   1.259   1_545  A
C87         C454   1.488       .  S
C87        O2436   1.266       .  A
C88         C701   1.497       .  S
C88        O2432   1.265       .  A
C89         C349   1.478       .  S
C89        O1257   1.261       .  A
O90         C103   1.262       .  A
O90         Co98   1.902       .  S
O91         C104   1.250       .  A
O91         Co99   1.950       .  S
O92         C105   1.280       .  A
O92        Co100   2.038   1_545  S
O93        C1282   1.262   1_565  A
O93       Co2453   2.006       .  S
O94         C106   1.254       .  A
O94         Co99   1.970       .  S
O95         C105   1.269       .  A
O95         Co98   1.974       .  S
O96         C103   1.290       .  A
O96        Co101   2.093   1_545  S
O97        C1280   1.271       .  A
O97       Co2452   2.043       .  S
Co98        O102   2.015   1_545  S
Co99       O3630   2.023       .  S
Co100      O1256   1.968       .  S
Co100      O1261   1.984       .  S
Co100      O2449   2.043   1_455  S
Co100       O102   2.054       .  S
Co101      O1257   1.871       .  S
Co101      O1260   1.968       .  S
Co101      O2445   2.006   1_455  S
Co101       O102   2.005       .  S
O102      Co3627   2.028   1_455  S
C103        C422   1.473       .  S
C104        C806   1.484       .  S
C104       O1273   1.273       .  A
C105        C678   1.484       .  S
C106        C381   1.480       .  S
C106       O1269   1.258       .  A
O107        C115   1.264   1_655  A
O107       Co127   1.968   1_655  S
O108        C116   1.255       .  A
O108       Co128   1.975       .  S
O109        C117   1.274       .  A
O109      Co2481   2.042       .  S
O110        C118   1.295       .  A
O110      Co1306   2.104   1_545  S
O111        C117   1.251       .  A
O111       Co128   1.947       .  S
O112        C118   1.265       .  A
O112       Co127   1.897       .  S
O113        C116   1.254       .  A
O113      Co2482   1.995       .  S
O114        C115   1.281       .  A
O114      Co1305   2.043   1_545  S
C115        C189   1.500   1_455  S
C116        C317   1.484       .  S
C117       C1053   1.481       .  S
C118        C230   1.491       .  S
O119        C132   1.299   1_545  A
O119       Co127   2.127       .  S
O120        C133   1.274       .  A
O120       Co128   2.034       .  S
O121       C1310   1.260       .  A
O121       Co129   1.983       .  S
O122       C2487   1.267       .  A
O122       Co130   1.958       .  S
O123        C135   1.280       .  A
O123       Co128   2.036       .  S
O124        C134   1.265   1_545  A
O124       Co127   2.006       .  S
O125       C1308   1.256       .  A
O125       Co130   1.865       .  S
O126       C2485   1.264   1_455  A
O126       Co129   1.975       .  S
Co127      O1307   2.017   1_545  S
Co128      O2483   2.022       .  S
Co129      O2461   2.043   1_455  S
Co129      O1290   2.036       .  S
Co129       O131   2.048       .  S
Co130      O1286   2.107       .  S
Co130      O2465   1.995   1_455  S
Co130       O131   1.996       .  S
O131      Co1303   2.012       .  S
O131      Co2480   2.022   1_455  S
C132        C294   1.483       .  S
C132       O1301   1.255       .  A
C133        C166   1.493       .  S
C133       O2478   1.265       .  A
C134       C1094   1.486       .  S
C134       O1297   1.258       .  A
C135        C262   1.482       .  S
C135       O2474   1.266       .  A
C136        C137   1.421       .  A
C136        C141   1.406       .  A
C136        C253   1.486       .  S
C137        C138   1.406       .  A
C137        C445   1.492       .  S
C138        C139   1.399       .  A
C138        H143   1.085       .  S
C139        C140   1.405       .  A
C139        C413   1.475       .  S
C140        C141   1.399       .  A
C140        C221   1.483       .  S
C141        H142   1.085       .  S
C144        C145   1.404       .  A
C144        C149   1.398       .  A
C144        C390   1.471       .  S
C145        C146   1.394       .  A
C145        C326   1.471       .  S
C146        C147   1.399       .  A
C146        H151   1.085       .  S
C147        C148   1.416       .  A
C147        C285   1.474       .  S
C148        C149   1.402       .  A
C148        C358   1.481       .  S
C149        H150   1.085       .  S
C152        C198   1.604       .  S
C152        C477   1.583   1_655  S
C152       C2509   1.595       .  S
C152       C2861   1.587       .  S
C153        C158   1.411       .  A
C153       C2506   1.393   1_455  A
C153        H163   1.085       .  S
C154        C155   1.405       .  A
C154       C2505   1.394       .  A
C154        C159   1.499       .  S
C155        C160   1.506       .  S
C155        C156   1.410       .  A
C156        C157   1.425       .  A
C156        H161   1.083       .  S
C157       C2504   1.595       .  S
C157       C2510   1.453       .  A
C158        C162   1.517       .  S
C158       C2509   1.452   1_455  A
C159        C168   1.403       .  A
C159       C2516   1.414       .  A
C160        H176   1.110       .  S
C160        H177   1.110       .  S
C160        H178   1.111       .  S
C162        H173   1.111       .  S
C162        H174   1.106       .  S
C162        H175   1.102       .  S
C164        C169   1.507       .  S
C164        C165   1.409       .  A
C164       C2511   1.414   1_455  A
C165       C2518   1.406   1_455  A
C165        H170   1.084       .  S
C166        C167   1.423       .  A
C166       C2517   1.406       .  A
C167        C171   1.509       .  S
C167        C168   1.410       .  A
C168        H172   1.084       .  S
C169        H179   1.111       .  S
C169        H180   1.109       .  S
C169        H181   1.110       .  S
C171        H182   1.111       .  S
C171        H183   1.102       .  S
C171        H184   1.110       .  S
C185        C190   1.409       .  A
C185       C2538   1.401       .  A
C185        H195   1.084       .  S
C186        C187   1.413   1_655  A
C186       C2537   1.401       .  A
C186        C191   1.495       .  S
C187        C192   1.507       .  S
C187        C188   1.409       .  A
C188        C189   1.409   1_455  A
C188        H193   1.084       .  S
C189       C2542   1.424       .  A
C190        C194   1.508       .  S
C190       C2541   1.424       .  A
C191        C200   1.396   1_655  A
C191       C2548   1.404       .  A
C192        H208   1.110       .  S
C192        H209   1.111       .  S
C192        H210   1.111       .  S
C194        H205   1.111       .  S
C194        H206   1.109       .  S
C194        H207   1.111       .  S
C196        C201   1.508       .  S
C196        C197   1.407       .  A
C196       C2543   1.404       .  A
C197       C2550   1.428       .  A
C197        H202   1.077       .  S
C198        C199   1.442   1_655  A
C198       C2549   1.427       .  A
C199        C203   1.505       .  S
C199        C200   1.410       .  A
C200        H204   1.085       .  S
C201        H211   1.111       .  S
C201        H212   1.109       .  S
C201        H213   1.111       .  S
C203        H214   1.110       .  S
C203        H215   1.087       .  S
C203        H216   1.111       .  S
C217        C222   1.402       .  A
C217       C2570   1.401       .  A
C217        H227   1.084       .  S
C218        C219   1.411       .  A
C218       C2569   1.401   1_455  A
C218        C223   1.481       .  S
C219        C224   1.506       .  S
C219        C220   1.404       .  A
C220       C2573   1.403       .  A
C220        H225   1.083       .  S
C221        C222   1.415       .  A
C221       C2572   1.403       .  A
C222        C226   1.507       .  S
C223        C232   1.401       .  A
C223       C2580   1.408       .  A
C224        H240   1.110       .  S
C224        H241   1.110       .  S
C224        H242   1.111       .  S
C226        H237   1.110       .  S
C226        H238   1.110       .  S
C226        H239   1.108       .  S
C228        C233   1.506       .  S
C228        C229   1.403       .  A
C228       C2575   1.407       .  A
C229       C2582   1.409       .  A
C229        H234   1.083       .  S
C230        C231   1.421       .  A
C230       C2581   1.409       .  A
C231        C235   1.508       .  S
C231        C232   1.405       .  A
C232        H236   1.084       .  S
C233        H243   1.111       .  S
C233        H244   1.110       .  S
C233       H2597   1.110       .  S
C235        H246   1.111       .  S
C235        H247   1.111       .  S
C235        H248   1.110       .  S
H245       C2585   1.110   1_455  S
C249        C254   1.400       .  A
C249       C2602   1.397       .  A
C249        H259   1.084       .  S
C250        C251   1.411       .  A
C250       C2601   1.397       .  A
C250        C255   1.481       .  S
C251        C256   1.505       .  S
C251        C252   1.407       .  A
C252        C253   1.405       .  A
C252        H257   1.084       .  S
C253       C2606   1.420       .  A
C254        C258   1.512       .  S
C254       C2605   1.420       .  A
C255        C264   1.404       .  A
C255       C2612   1.408       .  A
C256        H272   1.110       .  S
C256        H273   1.110       .  S
C256        H274   1.111       .  S
C258        H269   1.111       .  S
C258        H270   1.107       .  S
C258        H271   1.107       .  S
C260        C265   1.507       .  S
C260        C261   1.401       .  A
C260       C2607   1.408       .  A
C261       C2614   1.408       .  A
C261        H266   1.083       .  S
C262        C263   1.414       .  A
C262       C2613   1.408       .  A
C263        C267   1.507       .  S
C263        C264   1.408       .  A
C264        H268   1.084       .  S
C265        H275   1.111       .  S
C265        H276   1.110       .  S
C265        H277   1.110       .  S
C267        H278   1.110       .  S
C267        H279   1.109       .  S
C267        H280   1.111       .  S
C281        C286   1.402       .  A
C281       C1458   1.401       .  A
C281        H291   1.084       .  S
C282        C283   1.409   1_565  A
C282       C1457   1.403       .  A
C282        C287   1.479       .  S
C283        C288   1.507       .  S
C283        C284   1.400       .  A
C284       C1461   1.405       .  A
C284        H289   1.084       .  S
C285        C286   1.414       .  A
C285       C1460   1.402       .  A
C286        C290   1.507       .  S
C287        C292   1.412       .  A
C287       C1472   1.394   1_565  A
C288        H304   1.110       .  S
C288        H305   1.109       .  S
C288        H306   1.111       .  S
C290        H301   1.110       .  S
C290        H302   1.110       .  S
C290        H303   1.107       .  S
C292        C297   1.505       .  S
C292        C293   1.409       .  A
C293        C294   1.405       .  A
C293        H298   1.084       .  S
C294       C1471   1.423   1_565  A
C295        C299   1.511       .  S
C295        C296   1.394       .  A
C295       C1470   1.423       .  A
C296       C1463   1.393       .  A
C296        H300   1.085       .  S
C297        H307   1.111       .  S
C297        H308   1.110       .  S
C297        H309   1.109       .  S
C299        H310   1.111       .  S
C299        H311   1.109       .  S
C299        H312   1.108       .  S
C313        C318   1.404   1_545  A
C313       C1490   1.399       .  A
C313        H323   1.084   1_545  S
C314        C315   1.408       .  A
C314       C1489   1.400       .  A
C314        C319   1.475       .  S
C315        C320   1.509       .  S
C315        C316   1.397       .  A
C316        C317   1.407       .  A
C316        H321   1.084       .  S
C317       C1494   1.422       .  A
C318        C322   1.508       .  S
C318       C1493   1.421   1_565  A
C319        C324   1.412       .  A
C319       C1504   1.401       .  A
C320        H336   1.109       .  S
C320        H337   1.110       .  S
C320        H338   1.111       .  S
C322        H333   1.110       .  S
C322        H334   1.111       .  S
C322        H335   1.110   1_565  S
C324        C329   1.508       .  S
C324        C325   1.399       .  A
C325        C326   1.400       .  A
C325        H330   1.084       .  S
C326       C1503   1.412       .  A
C327        C331   1.507       .  S
C327        C328   1.400       .  A
C327       C1502   1.413       .  A
C328       C1495   1.401       .  A
C328        H332   1.084       .  S
C329        H339   1.111       .  S
C329        H340   1.110       .  S
C329        H341   1.110       .  S
C331        H342   1.110       .  S
C331        H343   1.108       .  S
C331        H344   1.110       .  S
C345        C346   1.399       .  A
C345        C350   1.402       .  A
C345        H355   1.084       .  S
C346       C1523   1.412   1_565  A
C346        C351   1.481       .  S
C347        C352   1.506       .  S
C347        C348   1.406       .  A
C347       C1522   1.413       .  A
C348       C1525   1.404       .  A
C348        H353   1.084       .  S
C349        C350   1.420       .  A
C349       C1524   1.404   1_565  A
C350        C354   1.510       .  S
C351        C360   1.403   1_565  A
C351       C1532   1.408       .  A
C352        H368   1.109       .  S
C352        H369   1.110       .  S
C352        H370   1.111       .  S
C354        H365   1.111       .  S
C354        H366   1.111       .  S
C354        H367   1.109       .  S
C356        C361   1.507       .  S
C356        C357   1.402       .  A
C356       C1527   1.411       .  A
C357        C358   1.404       .  A
C357        H362   1.084       .  S
C358       C1535   1.415       .  A
C359        C363   1.506       .  S
C359        C360   1.404       .  A
C359       C1534   1.416       .  A
C360        H364   1.084       .  S
C361        H371   1.111       .  S
C361        H372   1.109       .  S
C361        H373   1.110       .  S
C363        H374   1.111       .  S
C363        H375   1.106       .  S
C363        H376   1.110       .  S
C377        C378   1.400       .  A
C377        C382   1.405       .  A
C377        H387   1.084       .  S
C378       C1555   1.407       .  A
C378        C383   1.472       .  S
C379        C384   1.508       .  S
C379        C380   1.398       .  A
C379       C1554   1.408       .  A
C380       C1557   1.407       .  A
C380        H385   1.084       .  S
C381        C382   1.418       .  A
C381       C1556   1.406       .  A
C382        C386   1.508       .  S
C383        C392   1.400       .  A
C383       C1564   1.409       .  A
C384        H400   1.110   1_545  S
C384        H401   1.110       .  S
C384        H402   1.111       .  S
C386        H397   1.111       .  S
C386        H398   1.109       .  S
C386        H399   1.110       .  S
C388        C393   1.505       .  S
C388        C389   1.403       .  A
C388       C1559   1.409       .  A
C389       C1566   1.402       .  A
C389        H394   1.084       .  S
C390        C391   1.412       .  A
C390       C1565   1.402       .  A
C391        C395   1.508       .  S
C391        C392   1.398       .  A
C392        H396   1.085       .  S
C393        H403   1.111       .  S
C393        H404   1.110       .  S
C393        H405   1.110       .  S
C395        H406   1.110       .  S
C395        H407   1.108       .  S
C395        H408   1.110       .  S
C409        C410   1.400       .  A
C409        C414   1.400       .  A
C409        H419   1.085       .  S
C410       C2763   1.410       .  A
C410        C415   1.475       .  S
C411        C416   1.507       .  S
C411        C412   1.402       .  A
C411       C2762   1.410       .  A
C412        C413   1.402       .  A
C412        H417   1.085       .  S
C413       C2766   1.413       .  A
C414        C418   1.507       .  S
C414       C2765   1.413       .  A
C415        C424   1.402       .  A
C415       C2772   1.408       .  A
C416        H432   1.110       .  S
C416        H433   1.109       .  S
C416        H434   1.111       .  S
C418        H429   1.110       .  S
C418        H430   1.110       .  S
C418        H431   1.108       .  S
C420        C425   1.507       .  S
C420        C421   1.400       .  A
C420       C2767   1.408       .  A
C421       C2774   1.404       .  A
C421        H426   1.084       .  S
C422        C423   1.412       .  A
C422       C2773   1.404       .  A
C423        C427   1.505       .  S
C423        C424   1.403       .  A
C424        H428   1.084       .  S
C425        H435   1.111       .  S
C425        H436   1.110       .  S
C425        H437   1.109       .  S
C427        H438   1.108       .  S
C427        H439   1.111       .  S
C427        H440   1.111       .  S
C441        C442   1.405       .  A
C441        C446   1.408       .  A
C441       H2803   1.084       .  S
C442        C443   1.412       .  A
C442        C447   1.489       .  S
C443        C448   1.509       .  S
C443        C444   1.400       .  A
C444        C445   1.406       .  A
C444        H449   1.085       .  S
C445        C446   1.417       .  A
C446       C2802   1.503       .  S
C447        C456   1.399       .  A
C447       C2804   1.414       .  A
C448        H464   1.108       .  S
C448        H466   1.111       .  S
C448       H2817   1.111       .  S
C450       C2798   1.503       .  S
C450        H461   1.103       .  S
C450        H463   1.111       .  S
C450       H2814   1.110       .  S
H451       C2793   1.084       .  S
C452        C457   1.506       .  S
C452        C453   1.407       .  A
C452       C2799   1.414       .  A
C453       C2806   1.406       .  A
C453        H458   1.084       .  S
C454        C455   1.422       .  A
C454       C2805   1.406       .  A
C455        C459   1.508       .  S
C455        C456   1.402       .  A
C456        H460   1.084       .  S
C457        H467   1.111       .  S
C457        H468   1.109       .  S
C457        H469   1.110       .  S
C459        H470   1.111       .  S
C459        H471   1.105       .  S
C459        H472   1.110       .  S
H462       C2802   1.110       .  S
H465       C2800   1.111       .  S
C473        C474   1.395       .  A
C473        C478   1.411       .  A
C473        H483   1.083       .  S
C474        C475   1.403       .  A
C474        C479   1.486       .  S
C475        C480   1.510       .  S
C475        C476   1.402       .  A
C476        C477   1.422       .  A
C476        H481   1.068       .  S
C477        C478   1.443       .  A
C478        C482   1.513   1_455  S
C479        C484   1.410       .  A
C479        C488   1.399       .  A
C480        H496   1.110       .  S
C480        H497   1.107       .  S
C480        H498   1.111       .  S
C482        H493   1.107       .  S
C482        H494   1.111       .  S
C482        H495   1.107       .  S
C484        C489   1.507       .  S
C484        C485   1.407       .  A
C485        C486   1.410       .  A
C485        H490   1.082       .  S
C486        C487   1.423       .  A
C487        C491   1.508       .  S
C487        C488   1.405       .  A
C488        H492   1.085       .  S
C489        H499   1.111       .  S
C489        H500   1.110       .  S
C489        H501   1.107       .  S
C491        H502   1.111       .  S
C491        H503   1.109       .  S
C491        H504   1.111       .  S
C505        C506   1.394       .  A
C505        C510   1.406       .  A
C505        H515   1.085       .  S
C506        C507   1.404       .  A
C506        C511   1.487       .  S
C507        C512   1.508       .  S
C507        C508   1.405       .  A
C508        C509   1.425       .  A
C508        H513   1.076       .  S
C509       C2504   1.587       .  S
C509        C510   1.444       .  A
C510        C514   1.511       .  S
C511        C516   1.410       .  A
C511        C520   1.400       .  A
C512        H528   1.110       .  S
C512        H529   1.110       .  S
C512        H530   1.111       .  S
C514        H525   1.110       .  S
C514        H526   1.111       .  S
C514        H527   1.097       .  S
C516        C521   1.506       .  S
C516        C517   1.407       .  A
C517        C518   1.410       .  A
C517        H522   1.084       .  S
C518        C519   1.418       .  A
C519        C523   1.501       .  S
C519        C520   1.404       .  A
C520        H524   1.085       .  S
C521        H531   1.111       .  S
C521        H532   1.110       .  S
C521        H533   1.110       .  S
C523        H534   1.111       .  S
C523        H535   1.101       .  S
C523        H536   1.110       .  S
C537        C538   1.399       .  A
C537        C542   1.403       .  A
C537        H547   1.084       .  S
C538        C539   1.407       .  A
C538        C543   1.474       .  S
C539        C544   1.508       .  S
C539        C540   1.398       .  A
C540        C541   1.408       .  A
C540        H545   1.084       .  S
C541        C542   1.422       .  A
C542        C546   1.509       .  S
C543        C548   1.411       .  A
C543        C552   1.401       .  A
C544        H560   1.110       .  S
C544        H561   1.110       .  S
C544        H562   1.111       .  S
C546        H557   1.110       .  S
C546        H558   1.111       .  S
C546        H559   1.110       .  S
C548        C553   1.508       .  S
C548        C549   1.397       .  A
C549        C550   1.400       .  A
C549        H554   1.084       .  S
C550        C551   1.413       .  A
C551        C555   1.506       .  S
C551        C552   1.401       .  A
C552        H556   1.084       .  S
C553        H563   1.111       .  S
C553        H564   1.110       .  S
C553        H565   1.110       .  S
C555        H566   1.110       .  S
C555        H567   1.107       .  S
C555        H568   1.110       .  S
C569        C570   1.404       .  A
C569        C574   1.408       .  A
C569        H579   1.084       .  S
C570        C571   1.406       .  A
C570        C575   1.476       .  S
C571        C576   1.510       .  S
C571        C572   1.396       .  A
C572        C573   1.410       .  A
C572        H577   1.084       .  S
C573        C574   1.416       .  A
C574        C578   1.505       .  S
C575        C580   1.412       .  A
C575        C584   1.398       .  A
C576        H592   1.110       .  S
C576        H593   1.109       .  S
C576        H594   1.111       .  S
C578        H589   1.111       .  S
C578        H590   1.110       .  S
C578        H591   1.109       .  S
C580        C585   1.506       .  S
C580        C581   1.404       .  A
C581        C582   1.403       .  A
C581        H586   1.084       .  S
C582        C583   1.416       .  A
C583        C587   1.509       .  S
C583        C584   1.398       .  A
C584        H588   1.085       .  S
C585        H595   1.111       .  S
C585        H596   1.110       .  S
C585        H597   1.109       .  S
C587        H598   1.110       .  S
C587        H599   1.108       .  S
C587        H600   1.110       .  S
C601        C602   1.400       .  A
C601        C606   1.401       .  A
C601        H611   1.084       .  S
C602        C603   1.410       .  A
C602        C607   1.474       .  S
C603        C608   1.507       .  S
C603        C604   1.399       .  A
C604        C605   1.402       .  A
C604        H609   1.084       .  S
C605        C606   1.415       .  A
C606        C610   1.508       .  S
C607        C612   1.411       .  A
C607        C616   1.395       .  A
C608        H624   1.110       .  S
C608        H625   1.110       .  S
C608        H626   1.111       .  S
C610        H621   1.110       .  S
C610        H622   1.110       .  S
C610        H623   1.108       .  S
C612        C617   1.505       .  S
C612        C613   1.407       .  A
C613        C614   1.403       .  A
C613        H618   1.084       .  S
C614        C615   1.419       .  A
C615        C619   1.510       .  S
C615        C616   1.396       .  A
C616        H620   1.085       .  S
C617        H627   1.111       .  S
C617        H628   1.111       .  S
C617        H629   1.110       .  S
C619        H630   1.109       .  S
C619        H631   1.108       .  S
C619        H632   1.111       .  S
C633        C634   1.406       .  A
C633        C638   1.406       .  A
C633        H643   1.084       .  S
C634        C635   1.404       .  A
C634        C639   1.473       .  S
C635        C640   1.509       .  S
C635        C636   1.395       .  A
C636        C637   1.413       .  A
C636        H641   1.085       .  S
C637        C638   1.407       .  A
C638        C642   1.504       .  S
C639        C644   1.410       .  A
C639        C648   1.399       .  A
C640        H656   1.110       .  S
C640        H657   1.110       .  S
C640        H658   1.111       .  S
C642        H653   1.111       .  S
C642        H654   1.110       .  S
C642        H655   1.109       .  S
C644        C649   1.507       .  S
C644        C645   1.400       .  A
C645        C646   1.402       .  A
C645        H650   1.083       .  S
C646        C647   1.416       .  A
C647        C651   1.508       .  S
C647        C648   1.400       .  A
C648        H652   1.084       .  S
C649        H659   1.111       .  S
C649        H660   1.110       .  S
C649        H661   1.111       .  S
C651        H662   1.110       .  S
C651        H663   1.109       .  S
C651        H664   1.110       .  S
C665        C670   1.413       .  A
C665       C3018   1.397       .  A
C665        H675   1.084       .  S
C666        C667   1.407   1_655  A
C666       C3017   1.397       .  A
C666        C671   1.497   1_655  S
C667        C672   1.509       .  S
C667        C668   1.405       .  A
C668        C669   1.421   1_455  A
C668        H673   1.074       .  S
C669       C2363   1.593       .  S
C669       C3022   1.444       .  A
C670        C674   1.512       .  S
C670       C3021   1.444       .  A
C671        C680   1.402       .  A
C671       C3028   1.417   1_455  A
C672        H688   1.108       .  S
C672        H689   1.111       .  S
C672        H690   1.111       .  S
C674        H685   1.111       .  S
C674        H686   1.107       .  S
C674        H687   1.106       .  S
C676        C681   1.506       .  S
C676        C677   1.413       .  A
C676       C3023   1.417       .  A
C677       C3030   1.404       .  A
C677        H682   1.084       .  S
C678        C679   1.413       .  A
C678       C3029   1.404   1_455  A
C679        C683   1.505       .  S
C679        C680   1.403       .  A
C680        H684   1.084       .  S
C681        H691   1.111       .  S
C681        H692   1.109       .  S
C681        H693   1.110       .  S
C683        H694   1.111       .  S
C683        H695   1.104       .  S
C683        H696   1.110       .  S
C697        C698   1.405       .  A
C697        C702   1.412       .  A
C697        H707   1.084       .  S
C698       C3051   1.412       .  A
C698        C703   1.497       .  S
C699        C704   1.508       .  S
C699        C700   1.407       .  A
C699       C3050   1.412   1_455  A
C700       C3053   1.408   1_455  A
C700        H705   1.084       .  S
C701        C702   1.421       .  A
C701       C3052   1.408       .  A
C702        C706   1.506       .  S
C703        C708   1.404       .  A
C703       C3064   1.397       .  A
C704        H720   1.110       .  S
C704        H721   1.111       .  S
C704        H722   1.111       .  S
C706        H717   1.110       .  S
C706        H718   1.111       .  S
C706        H719   1.103       .  S
C708        C713   1.508       .  S
C708        C709   1.407       .  A
C709        C710   1.426       .  A
C709        H714   1.076       .  S
C710       C3063   1.442       .  A
C711        C715   1.510       .  S
C711        C712   1.411       .  A
C711       C3062   1.442   1_455  A
C712       C3055   1.397   1_455  A
C712        H716   1.085       .  S
C713        H723   1.111       .  S
C713        H724   1.110       .  S
C713        H725   1.110       .  S
C715        H726   1.110       .  S
C715        H727   1.096       .  S
C715        H728   1.111       .  S
C729        C730   1.399       .  A
C729        C734   1.418       .  A
C729        H739   1.083       .  S
C730        C731   1.406       .  A
C730        C735   1.502       .  S
C731        C736   1.509       .  S
C731        C732   1.407       .  A
C732        C733   1.424       .  A
C732        H737   1.074       .  S
C733       C2363   1.604   1_455  S
C733        C734   1.444       .  A
C734        C738   1.512   1_455  S
C735        C740   1.415       .  A
C735        C744   1.401       .  A
C736        H752   1.110       .  S
C736        H753   1.108       .  S
C736        H754   1.111       .  S
C738        H749   1.108       .  S
C738        H750   1.111   1_655  S
C738        H751   1.105       .  S
C740        C745   1.506       .  S
C740        C741   1.416       .  A
C741        C742   1.410       .  A
C741        H746   1.084       .  S
C742        C743   1.424       .  A
C743        C747   1.506       .  S
C743        C744   1.409       .  A
C744        H748   1.085       .  S
C745        H755   1.111       .  S
C745        H756   1.110       .  S
C745        H757   1.108       .  S
C747        H758   1.110       .  S
C747        H759   1.099       .  S
C747        H760   1.111       .  S
C761        C762   1.396       .  A
C761        C766   1.407       .  A
C761        H771   1.085       .  S
C762        C763   1.400       .  A
C762        C767   1.485       .  S
C763        C768   1.509       .  S
C763        C764   1.403       .  A
C764        C765   1.428       .  A
C764        H769   1.076       .  S
C765        C766   1.440       .  A
C766        C770   1.510       .  S
C767        C772   1.406       .  A
C767        C776   1.403       .  A
C768        H784   1.110       .  S
C768        H785   1.110       .  S
C768        H786   1.111       .  S
C770        H781   1.110       .  S
C770        H782   1.111       .  S
C770        H783   1.096       .  S
C772        C777   1.508       .  S
C772        C773   1.401       .  A
C773        C774   1.414       .  A
C773        H778   1.083       .  S
C774        C775   1.420       .  A
C775        C779   1.506       .  S
C775        C776   1.410       .  A
C776        H780   1.084       .  S
C777        H787   1.111       .  S
C777        H788   1.110       .  S
C777        H789   1.110       .  S
C779        H790   1.111       .  S
C779        H791   1.110       .  S
C779        H792   1.111       .  S
C793        C794   1.393       .  A
C793        C798   1.409       .  A
C793        H803   1.086       .  S
C794       C1971   1.404       .  A
C794        C799   1.487       .  S
C795        C800   1.507       .  S
C795        C796   1.403       .  A
C795       C1970   1.403       .  A
C796       C1973   1.423       .  A
C796        H801   1.083       .  S
C797       C1186   1.587       .  S
C797        C798   1.448       .  A
C797       C1972   1.424       .  A
C798        C802   1.515       .  S
C799        C808   1.395       .  A
C799       C1980   1.414       .  A
C800        H817   1.110       .  S
C800        H818   1.111       .  S
C800       H1992   1.110       .  S
C802        H814   1.096       .  S
C802        H815   1.110       .  S
C802       H1989   1.112       .  S
C804        C809   1.504       .  S
C804        C805   1.412       .  A
C804       C1975   1.413       .  A
C805       C1982   1.405   1_545  A
C805        H810   1.084       .  S
C806        C807   1.424       .  A
C806       C1981   1.406       .  A
C807        C811   1.511       .  S
C807        C808   1.397       .  A
C808        H812   1.085       .  S
C809        H819   1.111       .  S
C809        H820   1.110       .  S
C809        H821   1.110       .  S
C811        H822   1.111       .  S
C811        H823   1.101       .  S
C811        H824   1.111       .  S
H813       C1978   1.112       .  S
H816       C1976   1.109       .  S
C825        C830   1.409       .  A
C825       C2002   1.394       .  A
C825        H835   1.085       .  S
C826        C827   1.403       .  A
C826       C2001   1.394   1_545  A
C826        C831   1.487       .  S
C827        C832   1.508       .  S
C827        C828   1.404       .  A
C828        C829   1.425       .  A
C828        H833   1.077       .  S
C829       C2006   1.443   1_545  A
C830        C834   1.504       .  S
C830       C2005   1.442       .  A
C831        C836   1.412       .  A
C831       C2016   1.401   1_545  A
C832        H848   1.110       .  S
C832        H849   1.109       .  S
C832        H850   1.111       .  S
C834        H845   1.110       .  S
C834        H846   1.111       .  S
C834        H847   1.087       .  S
C836        C841   1.506       .  S
C836        C837   1.409       .  A
C837        C838   1.406       .  A
C837        H842   1.084       .  S
C838       C2015   1.415   1_545  A
C839        C843   1.508       .  S
C839        C840   1.403       .  A
C839       C2014   1.415       .  A
C840       C2007   1.401       .  A
C840        H844   1.084       .  S
C841        H851   1.111       .  S
C841        H852   1.110       .  S
C841        H853   1.109       .  S
C843        H854   1.111       .  S
C843        H855   1.110       .  S
C843        H856   1.110       .  S
C857        C858   1.398       .  A
C857        C862   1.410       .  A
C857        H867   1.085       .  S
C858        C859   1.405       .  A
C858        C863   1.493       .  S
C859        C864   1.510       .  S
C859        C860   1.403       .  A
C860        C861   1.426       .  A
C860        H865   1.076       .  S
C861        C862   1.441       .  A
C862        C866   1.509       .  S
C863        C868   1.414       .  A
C863        C872   1.397       .  A
C864        H880   1.108       .  S
C864        H881   1.110       .  S
C864        H882   1.111       .  S
C866        H877   1.111       .  S
C866        H878   1.110       .  S
C866        H879   1.096       .  S
C868        C873   1.506       .  S
C868        C869   1.412       .  A
C869        C870   1.409       .  A
C869        H874   1.083       .  S
C870        C871   1.427       .  A
C871        C875   1.511       .  S
C871        C872   1.403       .  A
C872        H876   1.084       .  S
C873        H883   1.111       .  S
C873        H884   1.109       .  S
C873        H885   1.111       .  S
C875        H886   1.109       .  S
C875        H887   1.111       .  S
C875        H888   1.111       .  S
C889        C890   1.400       .  A
C889        C894   1.415       .  A
C889        H899   1.083       .  S
C890        C891   1.407       .  A
C890        C895   1.500       .  S
C891        C896   1.509       .  S
C891        C892   1.405       .  A
C892        C893   1.422       .  A
C892        H897   1.072       .  S
C893       C1186   1.585       .  S
C893        C894   1.441       .  A
C894        C898   1.511       .  S
C895        C900   1.414       .  A
C895        C904   1.405       .  A
C896        H912   1.109       .  S
C896        H913   1.110       .  S
C896        H914   1.111       .  S
C898        H909   1.111       .  S
C898        H910   1.108       .  S
C898       H2087   1.106       .  S
C900        C905   1.507       .  S
C900        C901   1.407       .  A
C901        C902   1.407       .  A
C901        H906   1.084       .  S
C902        C903   1.420       .  A
C903        C907   1.507       .  S
C903        C904   1.412       .  A
C904        H908   1.084       .  S
C905        H915   1.111       .  S
C905        H916   1.109       .  S
C905        H917   1.110       .  S
C907        H918   1.111       .  S
C907        H919   1.110       .  S
C907        H920   1.109       .  S
H911       C2074   1.106       .  S
C921        C922   1.400       .  A
C921        C926   1.401       .  A
C921        H931   1.085       .  S
C922        C923   1.412       .  A
C922        C927   1.481       .  S
C923        C928   1.507       .  S
C923        C924   1.405       .  A
C924        C925   1.403       .  A
C924        H929   1.083       .  S
C925        C926   1.417       .  A
C926        C930   1.508       .  S
C927        C932   1.408       .  A
C927        C936   1.403       .  A
C928        H944   1.110       .  S
C928        H945   1.111       .  S
C928        H946   1.111       .  S
C930        H941   1.110       .  S
C930        H942   1.110       .  S
C930        H943   1.108       .  S
C932        C937   1.507       .  S
C932        C933   1.401       .  A
C933        C934   1.408       .  A
C933        H938   1.083       .  S
C934        C935   1.414       .  A
C935        C939   1.502       .  S
C935        C936   1.403       .  A
C936        H940   1.084       .  S
C937        H947   1.111       .  S
C937        H948   1.109       .  S
C937        H949   1.110       .  S
C939        H950   1.111       .  S
C939        H951   1.102       .  S
C939        H952   1.110       .  S
C953        C954   1.401       .  A
C953        C958   1.399       .  A
C953        H963   1.085       .  S
C954        C955   1.408       .  A
C954        C959   1.471       .  S
C955        C960   1.506       .  S
C955        C956   1.398       .  A
C956        C957   1.402       .  A
C956        H961   1.084       .  S
C957        C958   1.412       .  A
C958        C962   1.507       .  S
C959        C964   1.408       .  A
C959        C968   1.396       .  A
C960        H976   1.110       .  S
C960        H977   1.110       .  S
C960        H978   1.111       .  S
C962        H973   1.110       .  S
C962        H974   1.110       .  S
C962        H975   1.107       .  S
C964        C969   1.507       .  S
C964        C965   1.401       .  A
C965        C966   1.407       .  A
C965        H970   1.084       .  S
C966        C967   1.421       .  A
C967        C971   1.506       .  S
C967        C968   1.400       .  A
C968        H972   1.085       .  S
C969        H979   1.111       .  S
C969        H980   1.110       .  S
C969        H981   1.110       .  S
C971        H982   1.111       .  S
C971        H983   1.108       .  S
C971        H984   1.107       .  S
C985        C986   1.392       .  A
C985        C990   1.395       .  A
C985        H995   1.085       .  S
C986        C987   1.411       .  A
C986        C991   1.470       .  S
C987        C992   1.504       .  S
C987        C988   1.405       .  A
C988        C989   1.399       .  A
C988        H993   1.084       .  S
C989        C990   1.423       .  A
C990        C994   1.509       .  S
C991        C996   1.408       .  A
C991       C1000   1.401       .  A
C992       H1008   1.111       .  S
C992       H1009   1.110       .  S
C992       H1010   1.111       .  S
C994       H1005   1.108       .  S
C994       H1006   1.111       .  S
C994       H1007   1.109       .  S
C996       C1001   1.507       .  S
C996        C997   1.398       .  A
C997        C998   1.400       .  A
C997       H1002   1.084       .  S
C998        C999   1.414       .  A
C999       C1003   1.507       .  S
C999       C1000   1.402       .  A
C1000      H1004   1.084       .  S
C1001      H1011   1.110       .  S
C1001      H1012   1.110       .  S
C1001      H1013   1.110       .  S
C1003      H1014   1.110       .  S
C1003      H1015   1.107       .  S
C1003      H1016   1.110       .  S
C1017      C1018   1.403       .  A
C1017      C1022   1.404       .  A
C1017      H1027   1.085       .  S
C1018      C1019   1.414       .  A
C1018      C1023   1.495       .  S
C1019      C1024   1.506       .  S
C1019      C1020   1.409       .  A
C1020      C1021   1.406       .  A
C1020      H1025   1.084       .  S
C1021      C1022   1.417       .  A
C1022      C1026   1.509       .  S
C1023      C1028   1.414       .  A
C1023      C1032   1.400       .  A
C1024      H1040   1.109       .  S
C1024      H1041   1.110       .  S
C1024      H1042   1.111       .  S
C1026      H1037   1.110       .  S
C1026      H1038   1.110       .  S
C1026      H1039   1.107       .  S
C1028      C1033   1.507       .  S
C1028      C1029   1.412       .  A
C1029      C1030   1.410       .  A
C1029      H1034   1.084       .  S
C1030      C1031   1.424       .  A
C1031      C1035   1.509       .  S
C1031      C1032   1.407       .  A
C1032      H1036   1.084       .  S
C1033      H1043   1.111       .  S
C1033      H1044   1.109       .  S
C1033      H1045   1.111       .  S
C1035      H1046   1.111       .  S
C1035      H1047   1.109       .  S
C1035      H1048   1.110       .  S
C1049      C1054   1.399       .  A
C1049      C2226   1.395   1_565  A
C1049      H1059   1.085       .  S
C1050      C1051   1.414       .  A
C1050      C2225   1.395       .  A
C1050      C1055   1.482       .  S
C1051      C1056   1.506       .  S
C1051      C1052   1.410       .  A
C1052      C1053   1.404       .  A
C1052      H1057   1.084       .  S
C1053      C2230   1.422       .  A
C1054      C1058   1.511       .  S
C1054      C2229   1.421       .  A
C1055      C1060   1.399       .  A
C1055      C2240   1.395       .  A
C1056      H1072   1.110       .  S
C1056      H1073   1.108       .  S
C1056      H1074   1.111       .  S
C1058      H1069   1.107       .  S
C1058      H1070   1.111       .  S
C1058      H1071   1.109       .  S
C1060      C1065   1.511       .  S
C1060      C1061   1.399       .  A
C1061      C1062   1.431       .  A
C1061      H1066   1.073       .  S
C1062      C1177   1.600       .  S
C1062      C2239   1.442       .  A
C1063      C1067   1.506       .  S
C1063      C1064   1.408       .  A
C1063      C2238   1.442       .  A
C1064      C2231   1.394       .  A
C1064      H1068   1.085       .  S
C1065      H1075   1.111       .  S
C1065      H1076   1.110       .  S
C1065      H1077   1.108       .  S
C1067      H1078   1.111       .  S
C1067      H1079   1.089       .  S
C1067      H1080   1.111       .  S
C1081      C1086   1.407       .  A
C1081      C2258   1.394       .  A
C1081      H1091   1.084       .  S
C1082      C1083   1.403       .  A
C1082      C2257   1.393       .  A
C1082      C1087   1.482       .  S
C1083      C1088   1.506       .  S
C1083      C1084   1.406       .  A
C1084      C1085   1.421       .  A
C1084      H1089   1.076       .  S
C1085      C2262   1.442       .  A
C1086      C1090   1.515       .  S
C1086      C2261   1.444       .  A
C1087      C1092   1.411   1_565  A
C1087      C2272   1.399       .  A
C1088      H1104   1.110       .  S
C1088      H1105   1.110   1_565  S
C1088      H1106   1.111       .  S
C1090      H1101   1.111       .  S
C1090      H1102   1.107       .  S
C1090      H1103   1.108       .  S
C1092      C1097   1.506       .  S
C1092      C1093   1.404       .  A
C1093      C1094   1.405   1_545  A
C1093      H1098   1.084       .  S
C1094      C2271   1.422       .  A
C1095      C1099   1.508       .  S
C1095      C1096   1.407       .  A
C1095      C2270   1.420       .  A
C1096      C2263   1.401       .  A
C1096      H1100   1.084       .  S
C1097      H1107   1.111       .  S
C1097      H1108   1.109       .  S
C1097      H1109   1.110       .  S
C1099      H1110   1.110       .  S
C1099      H1111   1.107       .  S
C1099      H1112   1.111       .  S
C1113      C1114   1.402       .  A
C1113      C1118   1.409       .  A
C1113      H1123   1.085       .  S
C1114      C1115   1.405       .  A
C1114      C1119   1.483       .  S
C1115      C1120   1.511       .  S
C1115      C1116   1.399       .  A
C1116      C1117   1.416       .  A
C1116      H1121   1.084       .  S
C1117      C1118   1.426       .  A
C1118      C1122   1.509       .  S
C1119      C1124   1.401       .  A
C1119      C1128   1.389       .  A
C1120      H1136   1.110       .  S
C1120      H1137   1.106       .  S
C1120      H1138   1.111       .  S
C1122      H1133   1.110       .  S
C1122      H1134   1.111       .  S
C1122      H1135   1.098       .  S
C1124      C1129   1.509       .  S
C1124      C1125   1.402       .  A
C1125      C1126   1.426       .  A
C1125      H1130   1.082       .  S
C1126      C1127   1.454       .  A
C1127      C1131   1.517       .  S
C1127      C1128   1.406       .  A
C1128      H1132   1.085       .  S
C1129      H1139   1.111       .  S
C1129      H1140   1.110       .  S
C1129      H1141   1.106       .  S
C1131      H1142   1.102       .  S
C1131      H1143   1.103       .  S
C1131      H1144   1.111       .  S
C1145      C1146   1.392       .  A
C1145      C1150   1.401       .  A
C1145      H1155   1.086       .  S
C1146      C1147   1.404       .  A
C1146      C1151   1.484       .  S
C1147      C1152   1.506       .  S
C1147      C1148   1.407       .  A
C1148      C1149   1.424       .  A
C1148      H1153   1.077       .  S
C1149      C1177   1.579       .  S
C1149      C1150   1.443       .  A
C1150      C1154   1.512       .  S
C1151      C1156   1.409       .  A
C1151      C1160   1.398       .  A
C1152      H1168   1.110       .  S
C1152      H1169   1.110       .  S
C1152      H1170   1.111       .  S
C1154      H1165   1.111       .  S
C1154      H1166   1.110       .  S
C1154      H1167   1.098       .  S
C1156      C1161   1.506       .  S
C1156      C1157   1.406       .  A
C1157      C1158   1.409       .  A
C1157      H1162   1.084       .  S
C1158      C1159   1.423       .  A
C1159      C1163   1.508       .  S
C1159      C1160   1.405       .  A
C1160      H1164   1.085       .  S
C1161      H1171   1.111       .  S
C1161      H1172   1.110       .  S
C1161      H1173   1.110       .  S
C1163      H1174   1.109       .  S
C1163      H1175   1.109       .  S
C1163      H1176   1.111       .  S
C1177      C2261   1.578       .  S
C1177      C2302   1.591       .  S
C1178      C1179   1.413   1_554  A
C1178      C1183   1.401       .  A
C1178      C2133   1.467       .  S
C1179      C1180   1.402       .  A
C1179      C2197   1.497       .  S
C1180      C3533   1.405       .  A
C1180      H1185   1.085       .  S
C1181      C3532   1.406   1_455  A
C1181      C1182   1.409   1_556  A
C1181      C2174   1.466       .  S
C1182      C3535   1.396   1_455  A
C1182      C2101   1.488       .  S
C1183      C3534   1.396       .  A
C1183      H1184   1.085       .  S
C1186      C2005   1.599       .  S
C1186      C2037   1.591       .  S
C1187      C4197   1.591       .  S
C1187      C1886   1.590       .  S
C1187      C4261   1.603       .  S
C1187      C1941   1.586       .  S
C1188      C1189   1.413   1_554  A
C1188      C1758   1.472       .  S
C1189      C1822   1.482       .  S
C1190      C1191   1.399       .  A
C1190      H1195   1.085       .  S
C1191      C1192   1.408   1_556  A
C1191      C1781   1.482       .  S
C1192      C1193   1.396       .  A
C1192      C1726   1.470       .  S
C1193      H1194   1.085       .  S
O1196      C1204   1.266       .  A
O1196     Co1216   1.990       .  S
O1197      C1205   1.252       .  A
O1197     Co1217   1.947       .  S
O1198      C1206   1.268       .  A
O1198     Co1218   2.030       .  S
O1199      C1207   1.281       .  A
O1199     Co1219   2.052       .  S
O1200      C1206   1.255       .  A
O1200     Co1217   1.960       .  S
O1201      C1207   1.261       .  A
O1201     Co1216   1.948       .  S
O1202      C1205   1.274       .  A
O1202     Co1219   2.047       .  S
O1203      C1204   1.272       .  A
O1203     Co1218   2.034       .  S
C1204      C2206   1.506       .  S
C1205      C2046   1.497       .  S
C1206      C1790   1.477       .  S
C1207      C1950   1.500       .  S
O1208      C1221   1.268       .  A
O1208     Co1216   2.020       .  S
O1209      C1222   1.281       .  A
O1209     Co1217   2.079       .  S
O1210      C1223   1.241       .  A
O1210     Co1218   1.902       .  S
O1211      C1224   1.263       .  A
O1211     Co1219   1.988       .  S
O1212      C1224   1.274       .  A
O1212     Co1217   2.039       .  S
O1213      C1223   1.281       .  A
O1213     Co1216   2.080       .  S
O1214      C1221   1.259       .  A
O1214     Co1219   1.980       .  S
O1215      C1222   1.241       .  A
O1215     Co1218   1.895       .  S
Co1216     O1220   2.110       .  S
Co1217     O1220   2.092       .  S
Co1218     O1220   1.952       .  S
Co1219     O1220   2.071       .  S
C1221      C2078   1.492       .  S
C1222      C2165   1.464       .  S
C1223      C1813   1.483       .  S
C1224      C1918   1.505       .  S
O1225      C1233   1.265       .  A
O1225     Co1245   1.969       .  S
O1226      C1234   1.255       .  A
O1226     Co1246   1.977       .  S
O1227      C1235   1.273       .  A
O1227     Co1247   2.040       .  S
O1228      C1236   1.293       .  A
O1228     Co1248   2.096       .  S
O1229      C1235   1.258       .  A
O1229     Co1246   1.954       .  S
O1230      C1236   1.267       .  A
O1230     Co1245   1.895       .  S
O1231      C1234   1.252       .  A
O1231     Co1248   1.985       .  S
O1232      C1233   1.280       .  A
O1232     Co1247   2.040       .  S
C1233      C1694   1.494       .  S
C1234      C1717   1.482       .  S
C1235      C2293   1.498       .  S
C1236      C2142   1.483       .  S
O1237      C1250   1.298       .  A
O1237     Co1245   2.120       .  S
O1238      C1251   1.273       .  A
O1238     Co1246   2.024       .  S
O1239      C1252   1.257       .  A
O1239     Co1247   1.978       .  S
O1240      C1253   1.266       .  A
O1240     Co1248   1.961       .  S
O1241      C1253   1.282       .  A
O1241     Co1246   2.042       .  S
O1242      C1252   1.264       .  A
O1242     Co1245   2.007       .  S
O1243      C1250   1.256       .  A
O1243     Co1248   1.865       .  S
O1244      C1251   1.261       .  A
O1244     Co1247   1.968       .  S
Co1245     O1249   2.023       .  S
Co1246     O1249   2.029       .  S
Co1247     O1249   2.033       .  S
Co1248     O1249   1.991       .  S
C1250      C1749   1.485       .  S
C1251      C1662   1.496       .  S
C1252      C2334   1.494       .  S
C1253      C2110   1.483       .  S
O1254      C1262   1.262       .  A
O1254     Co1274   1.999       .  S
O1255      C1263   1.276       .  A
O1255     Co1275   2.032       .  S
O1256      C3616   1.265   1_455  A
O1258      C1264   1.276       .  A
O1258     Co1275   2.035       .  S
O1259      C1265   1.301       .  A
O1259     Co1274   2.126       .  S
O1260      C3615   1.265       .  A
C1262      C2014   1.481       .  S
C1263      C1630   1.488       .  S
C1263      O3612   1.265       .  A
C1264      C1877   1.490       .  S
C1264      O3608   1.265       .  A
C1265      C1525   1.484       .  S
O1266      C1279   1.264       .  A
O1266     Co1274   1.904       .  S
O1267      C1280   1.251   1_545  A
O1267     Co1275   1.952   1_545  S
O1268      C1281   1.278       .  A
O1268     Co1276   2.032       .  S
O1269     Co3629   1.998       .  S
O1270      C1282   1.255       .  A
O1270     Co1275   1.969   1_545  S
O1271      C1281   1.268       .  A
O1271     Co1274   1.975       .  S
O1272      C1279   1.289       .  A
O1272     Co1277   2.092       .  S
O1273     Co3628   2.049       .  S
Co1274     O1278   2.018       .  S
Co1275     O2454   2.028       .  S
Co1276     O3625   2.049   1_455  S
Co1276     O1278   2.056       .  S
Co1277     O3621   1.998   1_455  S
Co1277     O1278   2.005       .  S
O1278     Co2451   2.023   1_455  S
C1279      C1598   1.471       .  S
C1280      C1982   1.482       .  S
C1281      C1854   1.481       .  S
C1282      C1557   1.483       .  S
O1283      C1291   1.263       .  A
O1283     Co1303   1.964       .  S
O1284      C1292   1.254   1_545  A
O1284     Co1304   1.972   1_545  S
O1285      C1293   1.275       .  A
O1285     Co3657   2.041       .  S
O1286      C1294   1.295       .  A
O1287      C1293   1.253       .  A
O1287     Co1304   1.947       .  S
O1288      C1294   1.264       .  A
O1288     Co1303   1.899       .  S
O1289      C1292   1.255       .  A
O1289     Co3658   1.996       .  S
O1290      C1291   1.279       .  A
C1291      C1365   1.494   1_455  S
C1292      C1493   1.484   1_565  S
C1293      C2229   1.479       .  S
C1294      C1406   1.491       .  S
O1295      C1308   1.299       .  A
O1295     Co1303   2.119       .  S
O1296      C1309   1.273       .  A
O1296     Co1304   2.030       .  S
O1297     Co1305   1.976       .  S
O1298      C3663   1.265       .  A
O1298     Co1306   1.955       .  S
O1299      C1311   1.279       .  A
O1299     Co1304   2.034       .  S
O1300      C1310   1.265       .  A
O1300     Co1303   2.007       .  S
O1301     Co1306   1.871       .  S
O1302      C3661   1.265   1_455  A
O1302     Co1305   1.980       .  S
Co1304     O3659   2.024       .  S
Co1305     O3637   2.041   1_455  S
Co1305     O1307   2.043       .  S
Co1306     O3641   1.997   1_455  S
Co1306     O1307   1.996       .  S
O1307     Co3656   2.024   1_455  S
C1308      C1470   1.478       .  S
C1309      C1342   1.494       .  S
C1309      O3654   1.264       .  A
C1310      C2270   1.485       .  S
C1311      C1438   1.483       .  S
C1311      O3650   1.266       .  A
C1312      C1313   1.420       .  A
C1312      C1317   1.405       .  A
C1312      C1429   1.485       .  S
C1313      C1314   1.406       .  A
C1313      C1621   1.492       .  S
C1314      C1315   1.401       .  A
C1314      H1319   1.085       .  S
C1315      C1316   1.406       .  A
C1315      C1589   1.477       .  S
C1316      C1317   1.399       .  A
C1316      C1397   1.483       .  S
C1317      H1318   1.085       .  S
C1320      C1321   1.403       .  A
C1320      C1325   1.396       .  A
C1320      C1566   1.476       .  S
C1321      C1322   1.396       .  A
C1321      C1502   1.471       .  S
C1322      C1323   1.401       .  A
C1322      H1327   1.085       .  S
C1323      C1324   1.420       .  A
C1323      C1461   1.483       .  S
C1324      C1325   1.406       .  A
C1324      C1534   1.484       .  S
C1325      H1326   1.085       .  S
C1328      C3685   1.595       .  S
C1328      C1374   1.601       .  S
C1328      C1653   1.582   1_655  S
C1328      C4037   1.586       .  S
C1329      C3682   1.393   1_455  A
C1329      C1334   1.411       .  A
C1329      H1339   1.085       .  S
C1330      C3681   1.393       .  A
C1330      C1331   1.405       .  A
C1330      C1335   1.498       .  S
C1331      C1336   1.506       .  S
C1331      C1332   1.409       .  A
C1332      C1333   1.425       .  A
C1332      H1337   1.083       .  S
C1333      C3680   1.595       .  S
C1333      C3686   1.453       .  A
C1334      C1338   1.517       .  S
C1334      C3685   1.453   1_455  A
C1335      C3692   1.415       .  A
C1335      C1344   1.402       .  A
C1336      H1352   1.109       .  S
C1336      H1353   1.110       .  S
C1336      H1354   1.111       .  S
C1338      H1349   1.111       .  S
C1338      H1350   1.104       .  S
C1338      H1351   1.103       .  S
C1340      C1345   1.507       .  S
C1340      C3687   1.415   1_455  A
C1340      C1341   1.410       .  A
C1341      C3694   1.407   1_455  A
C1341      H1346   1.084       .  S
C1342      C3693   1.407       .  A
C1342      C1343   1.423       .  A
C1343      C1347   1.508       .  S
C1343      C1344   1.407       .  A
C1344      H1348   1.085       .  S
C1345      H1355   1.111       .  S
C1345      H1356   1.109       .  S
C1345      H1357   1.110       .  S
C1347      H1358   1.111       .  S
C1347      H1359   1.101       .  S
C1347      H1360   1.110       .  S
C1361      C3714   1.401       .  A
C1361      C1366   1.407       .  A
C1361      H1371   1.084       .  S
C1362      C3713   1.401       .  A
C1362      C1363   1.412   1_655  A
C1362      C1367   1.490       .  S
C1363      C1368   1.507       .  S
C1363      C1364   1.406       .  A
C1364      C1365   1.408   1_455  A
C1364      H1369   1.084       .  S
C1365      C3718   1.422       .  A
C1366      C1370   1.509       .  S
C1366      C3717   1.422       .  A
C1367      C3724   1.402       .  A
C1367      C1376   1.396   1_655  A
C1368      H1384   1.110       .  S
C1368      H1385   1.111       .  S
C1368      H1386   1.111       .  S
C1370      H1381   1.111       .  S
C1370      H1382   1.109       .  S
C1370      H1383   1.111       .  S
C1372      C1377   1.508       .  S
C1372      C3719   1.402       .  A
C1372      C1373   1.404       .  A
C1373      C3726   1.427       .  A
C1373      H1378   1.077       .  S
C1374      C3725   1.427       .  A
C1374      C1375   1.442   1_655  A
C1375      C1379   1.506       .  S
C1375      C1376   1.409       .  A
C1376      H1380   1.085       .  S
C1377      H1387   1.111       .  S
C1377      H1388   1.109       .  S
C1377      H1389   1.110       .  S
C1379      H1390   1.110       .  S
C1379      H1391   1.087       .  S
C1379      H1392   1.111       .  S
C1393      C3746   1.400       .  A
C1393      C1398   1.402       .  A
C1393      H1403   1.084       .  S
C1394      C3745   1.400   1_455  A
C1394      C1395   1.412       .  A
C1394      C1399   1.482       .  S
C1395      C1400   1.506       .  S
C1395      C1396   1.405       .  A
C1396      C3749   1.404       .  A
C1396      H1401   1.084       .  S
C1397      C3748   1.404       .  A
C1397      C1398   1.416       .  A
C1398      C1402   1.508       .  S
C1399      C3756   1.408       .  A
C1399      C1408   1.401       .  A
C1400      H1416   1.110       .  S
C1400      H1417   1.110       .  S
C1400      H1418   1.111       .  S
C1402      H1413   1.110       .  S
C1402      H1414   1.110       .  S
C1402      H1415   1.108       .  S
C1404      C1409   1.507       .  S
C1404      C3751   1.408       .  A
C1404      C1405   1.403       .  A
C1405      C3758   1.409       .  A
C1405      H1410   1.083       .  S
C1406      C3757   1.409       .  A
C1406      C1407   1.421       .  A
C1407      C1411   1.508       .  S
C1407      C1408   1.406       .  A
C1408      H1412   1.084       .  S
C1409      H1419   1.111       .  S
C1409      H1420   1.110       .  S
C1409      H3773   1.110       .  S
C1411      H1422   1.111       .  S
C1411      H1423   1.111       .  S
C1411      H1424   1.109       .  S
H1421      C3761   1.110   1_455  S
C1425      C3778   1.398       .  A
C1425      C1430   1.400       .  A
C1425      H1435   1.084       .  S
C1426      C3777   1.398       .  A
C1426      C1427   1.412       .  A
C1426      C1431   1.481       .  S
C1427      C1432   1.506       .  S
C1427      C1428   1.405       .  A
C1428      C1429   1.404       .  A
C1428      H1433   1.084       .  S
C1429      C3782   1.420       .  A
C1430      C1434   1.512       .  S
C1430      C3781   1.420       .  A
C1431      C3788   1.408       .  A
C1431      C1440   1.404       .  A
C1432      H1448   1.110       .  S
C1432      H1449   1.111       .  S
C1432      H1450   1.111       .  S
C1434      H1445   1.111       .  S
C1434      H1446   1.107       .  S
C1434      H1447   1.107       .  S
C1436      C1441   1.508       .  S
C1436      C3783   1.408       .  A
C1436      C1437   1.399       .  A
C1437      C3790   1.408       .  A
C1437      H1442   1.084       .  S
C1438      C3789   1.408       .  A
C1438      C1439   1.415       .  A
C1439      C1443   1.507       .  S
C1439      C1440   1.407       .  A
C1440      H1444   1.084       .  S
C1441      H1451   1.111       .  S
C1441      H1452   1.109       .  S
C1441      H1453   1.110       .  S
C1443      H1454   1.110       .  S
C1443      H1455   1.109       .  S
C1443      H1456   1.111       .  S
C1457      C1462   1.405       .  A
C1457      H1467   1.084       .  S
C1458      C1459   1.409       .  A
C1458      C1463   1.473       .  S
C1459      C1464   1.507       .  S
C1459      C1460   1.398       .  A
C1460      H1465   1.084       .  S
C1461      C1462   1.415   1_545  A
C1462      C1466   1.506       .  S
C1463      C1468   1.411       .  A
C1464      H1480   1.110       .  S
C1464      H1481   1.110       .  S
C1464      H1482   1.111       .  S
C1466      H1477   1.110       .  S
C1466      H1478   1.110       .  S
C1466      H1479   1.107       .  S
C1468      C1473   1.505       .  S
C1468      C1469   1.407       .  A
C1469      C1470   1.405       .  A
C1469      H1474   1.084       .  S
C1471      C1475   1.510       .  S
C1471      C1472   1.397       .  A
C1472      H1476   1.085       .  S
C1473      H1483   1.111       .  S
C1473      H1484   1.110       .  S
C1473      H1485   1.110       .  S
C1475      H1486   1.111       .  S
C1475      H1487   1.109   1_545  S
C1475      H1488   1.108       .  S
C1489      C1494   1.404       .  A
C1489      H1499   1.085       .  S
C1490      C1491   1.407       .  A
C1490      C1495   1.473       .  S
C1491      C1496   1.509       .  S
C1491      C1492   1.396       .  A
C1492      C1493   1.407       .  A
C1492      H1497   1.084       .  S
C1494      C1498   1.509       .  S
C1495      C1500   1.411   1_545  A
C1496      H1512   1.110       .  S
C1496      H1513   1.110       .  S
C1496      H1514   1.111       .  S
C1498      H1509   1.110       .  S
C1498      H1510   1.111       .  S
C1498      H1511   1.110       .  S
C1500      C1505   1.507       .  S
C1500      C1501   1.398       .  A
C1501      C1502   1.400   1_565  A
C1501      H1506   1.084       .  S
C1503      C1507   1.507       .  S
C1503      C1504   1.400       .  A
C1504      H1508   1.084       .  S
C1505      H1515   1.111       .  S
C1505      H1516   1.110       .  S
C1505      H1517   1.110       .  S
C1507      H1518   1.110       .  S
C1507      H1519   1.108       .  S
C1507      H1520   1.110       .  S
C1521      C1522   1.398       .  A
C1521      C1526   1.402       .  A
C1521      H1531   1.084       .  S
C1522      C1527   1.484       .  S
C1523      C1528   1.506       .  S
C1523      C1524   1.404       .  A
C1524      H1529   1.084       .  S
C1525      C1526   1.422       .  A
C1526      C1530   1.511       .  S
C1527      C1536   1.403       .  A
C1528      H1544   1.110       .  S
C1528      H1545   1.110       .  S
C1528      H1546   1.111       .  S
C1530      H1541   1.110       .  S
C1530      H1542   1.111       .  S
C1530      H1543   1.109       .  S
C1532      C1537   1.507       .  S
C1532      C1533   1.400       .  A
C1533      C1534   1.406   1_565  A
C1533      H1538   1.084       .  S
C1535      C1539   1.507       .  S
C1535      C1536   1.404       .  A
C1536      H1540   1.085       .  S
C1537      H1547   1.111       .  S
C1537      H1548   1.109       .  S
C1537      H1549   1.111       .  S
C1539      H1550   1.110       .  S
C1539      H1551   1.107       .  S
C1539      H1552   1.110       .  S
C1553      C1554   1.401       .  A
C1553      C1558   1.406       .  A
C1553      H1563   1.084       .  S
C1554      C1559   1.475       .  S
C1555      C1560   1.508       .  S
C1555      C1556   1.397       .  A
C1556      H1561   1.084       .  S
C1557      C1558   1.418       .  A
C1558      C1562   1.506       .  S
C1559      C1568   1.400   1_545  A
C1560      H1576   1.110       .  S
C1560      H1577   1.110       .  S
C1560      H1578   1.111       .  S
C1562      H1573   1.111       .  S
C1562      H1574   1.109   1_545  S
C1562      H1575   1.109       .  S
C1564      C1569   1.506       .  S
C1564      C1565   1.401       .  A
C1565      H1570   1.084       .  S
C1566      C1567   1.413   1_545  A
C1567      C1571   1.508       .  S
C1567      C1568   1.399       .  A
C1568      H1572   1.085       .  S
C1569      H1579   1.111       .  S
C1569      H1580   1.110       .  S
C1569      H1581   1.110       .  S
C1571      H1582   1.110       .  S
C1571      H1583   1.108       .  S
C1571      H1584   1.110       .  S
C1585      C1586   1.400       .  A
C1585      C1590   1.400       .  A
C1585      H1595   1.085       .  S
C1586      C3939   1.410   1_455  A
C1586      C1591   1.477       .  S
C1587      C1592   1.506       .  S
C1587      C3938   1.410       .  A
C1587      C1588   1.403       .  A
C1588      C1589   1.403       .  A
C1588      H1593   1.084       .  S
C1589      C3942   1.413       .  A
C1590      C1594   1.507       .  S
C1590      C3941   1.413       .  A
C1591      C3948   1.409       .  A
C1591      C1600   1.403       .  A
C1592      H1608   1.110       .  S
C1592      H1609   1.109       .  S
C1592      H1610   1.111       .  S
C1594      H1605   1.110       .  S
C1594      H1606   1.110       .  S
C1594      H1607   1.108       .  S
C1596      C1601   1.507       .  S
C1596      C3943   1.409       .  A
C1596      C1597   1.401       .  A
C1597      C3950   1.403       .  A
C1597      H1602   1.085       .  S
C1598      C3949   1.403       .  A
C1598      C1599   1.411       .  A
C1599      C1603   1.505       .  S
C1599      C1600   1.404       .  A
C1600      H1604   1.084       .  S
C1601      H1611   1.111       .  S
C1601      H1612   1.110       .  S
C1601      H1613   1.109       .  S
C1603      H1614   1.107       .  S
C1603      H1615   1.111   1_455  S
C1603      H1616   1.111       .  S
C1617      C1618   1.405       .  A
C1617      C1622   1.407       .  A
C1617      H3979   1.084       .  S
C1618      C1619   1.412       .  A
C1618      C1623   1.490       .  S
C1619      C1624   1.508       .  S
C1619      C1620   1.401       .  A
C1620      C1621   1.406       .  A
C1620      H1625   1.085       .  S
C1621      C1622   1.416       .  A
C1622      C3978   1.503       .  S
C1623      C3980   1.414       .  A
C1623      C1632   1.400       .  A
C1624      H1640   1.108       .  S
C1624      H3993   1.110       .  S
C1624      H1642   1.111       .  S
C1626      C3974   1.503       .  S
C1626      H1637   1.103       .  S
C1626      H3990   1.110       .  S
C1626      H1639   1.111       .  S
H1627      C3969   1.084       .  S
C1628      C1633   1.507       .  S
C1628      C3975   1.414       .  A
C1628      C1629   1.407       .  A
C1629      C3982   1.404       .  A
C1629      H1634   1.084       .  S
C1630      C3981   1.405       .  A
C1630      C1631   1.422       .  A
C1631      C1635   1.508       .  S
C1631      C1632   1.404       .  A
C1632      H1636   1.084       .  S
C1633      H1643   1.111       .  S
C1633      H1644   1.109       .  S
C1633      H1645   1.110       .  S
C1635      H1646   1.111       .  S
C1635      H1647   1.105       .  S
C1635      H1648   1.110       .  S
H1638      C3978   1.110       .  S
H1641      C3976   1.110       .  S
C1649      C1650   1.394       .  A
C1649      C1654   1.410       .  A
C1649      H1659   1.085       .  S
C1650      C1651   1.403       .  A
C1650      C1655   1.484       .  S
C1651      C1656   1.510       .  S
C1651      C1652   1.401       .  A
C1652      C1653   1.421       .  A
C1652      H1657   1.075       .  S
C1653      C1654   1.443       .  A
C1654      C1658   1.513   1_455  S
C1655      C1660   1.409       .  A
C1655      C1664   1.399       .  A
C1656      H1672   1.110       .  S
C1656      H1673   1.107       .  S
C1656      H1674   1.111       .  S
C1658      H1669   1.107       .  S
C1658      H1670   1.111       .  S
C1658      H1671   1.107       .  S
C1660      C1665   1.507       .  S
C1660      C1661   1.406       .  A
C1661      C1662   1.410       .  A
C1661      H1666   1.083       .  S
C1662      C1663   1.423       .  A
C1663      C1667   1.508       .  S
C1663      C1664   1.404       .  A
C1664      H1668   1.085       .  S
C1665      H1675   1.111       .  S
C1665      H1676   1.110       .  S
C1665      H1677   1.107       .  S
C1667      H1678   1.111       .  S
C1667      H1679   1.109       .  S
C1667      H1680   1.110       .  S
C1681      C1682   1.394       .  A
C1681      C1686   1.407       .  A
C1681      H1691   1.085       .  S
C1682      C1683   1.404       .  A
C1682      C1687   1.488       .  S
C1683      C1688   1.508       .  S
C1683      C1684   1.405       .  A
C1684      C1685   1.424       .  A
C1684      H1689   1.077       .  S
C1685      C3680   1.586       .  S
C1685      C1686   1.444       .  A
C1686      C1690   1.511       .  S
C1687      C1692   1.410       .  A
C1687      C1696   1.401       .  A
C1688      H1704   1.110       .  S
C1688      H1705   1.110       .  S
C1688      H1706   1.111       .  S
C1690      H1701   1.110       .  S
C1690      H1702   1.111       .  S
C1690      H1703   1.097       .  S
C1692      C1697   1.506       .  S
C1692      C1693   1.407       .  A
C1693      C1694   1.410       .  A
C1693      H1698   1.084       .  S
C1694      C1695   1.416       .  A
C1695      C1699   1.499       .  S
C1695      C1696   1.407       .  A
C1696      H1700   1.084       .  S
C1697      H1707   1.111       .  S
C1697      H1708   1.110       .  S
C1697      H1709   1.110       .  S
C1699      H1710   1.111       .  S
C1699      H1711   1.109       .  S
C1699      H1712   1.109       .  S
C1713      C1714   1.397       .  A
C1713      C1718   1.401       .  A
C1713      H1723   1.084       .  S
C1714      C1715   1.407       .  A
C1714      C1719   1.470       .  S
C1715      C1720   1.508       .  S
C1715      C1716   1.397       .  A
C1716      C1717   1.406       .  A
C1716      H1721   1.083       .  S
C1717      C1718   1.424       .  A
C1718      C1722   1.510       .  S
C1719      C1724   1.410       .  A
C1719      C1728   1.400       .  A
C1720      H1736   1.110       .  S
C1720      H1737   1.111       .  S
C1720      H1738   1.111       .  S
C1722      H1733   1.110       .  S
C1722      H1734   1.111       .  S
C1722      H1735   1.110       .  S
C1724      C1729   1.507       .  S
C1724      C1725   1.397       .  A
C1725      C1726   1.400       .  A
C1725      H1730   1.085       .  S
C1726      C1727   1.413       .  A
C1727      C1731   1.506       .  S
C1727      C1728   1.398       .  A
C1728      H1732   1.085       .  S
C1729      H1739   1.111       .  S
C1729      H1740   1.110       .  S
C1729      H1741   1.110       .  S
C1731      H1742   1.110       .  S
C1731      H1743   1.107       .  S
C1731      H1744   1.110       .  S
C1745      C1746   1.404       .  A
C1745      C1750   1.408       .  A
C1745      H1755   1.084       .  S
C1746      C1747   1.404       .  A
C1746      C1751   1.473       .  S
C1747      C1752   1.510       .  S
C1747      C1748   1.394       .  A
C1748      C1749   1.411       .  A
C1748      H1753   1.084       .  S
C1749      C1750   1.416       .  A
C1750      C1754   1.506       .  S
C1751      C1756   1.411       .  A
C1751      C1760   1.398       .  A
C1752      H1768   1.110       .  S
C1752      H1769   1.109       .  S
C1752      H1770   1.111       .  S
C1754      H1765   1.111       .  S
C1754      H1766   1.110       .  S
C1754      H1767   1.109       .  S
C1756      C1761   1.506       .  S
C1756      C1757   1.403       .  A
C1757      C1758   1.402       .  A
C1757      H1762   1.084       .  S
C1758      C1759   1.414       .  A
C1759      C1763   1.508       .  S
C1759      C1760   1.397       .  A
C1760      H1764   1.084       .  S
C1761      H1771   1.111       .  S
C1761      H1772   1.110       .  S
C1761      H1773   1.110       .  S
C1763      H1774   1.110       .  S
C1763      H1775   1.108       .  S
C1763      H1776   1.111       .  S
C1777      C1778   1.400       .  A
C1777      C1782   1.401       .  A
C1777      H1787   1.085       .  S
C1778      C1779   1.411       .  A
C1778      C1783   1.478       .  S
C1779      C1784   1.506       .  S
C1779      C1780   1.402       .  A
C1780      C1781   1.404       .  A
C1780      H1785   1.084       .  S
C1781      C1782   1.417       .  A
C1782      C1786   1.508       .  S
C1783      C1788   1.412       .  A
C1783      C1792   1.396       .  A
C1784      H1800   1.110       .  S
C1784      H1801   1.109       .  S
C1784      H1802   1.111       .  S
C1786      H1797   1.110       .  S
C1786      H1798   1.110       .  S
C1786      H1799   1.107       .  S
C1788      C1793   1.505       .  S
C1788      C1789   1.408       .  A
C1789      C1790   1.403       .  A
C1789      H1794   1.084       .  S
C1790      C1791   1.421       .  A
C1791      C1795   1.510       .  S
C1791      C1792   1.398       .  A
C1792      H1796   1.085       .  S
C1793      H1803   1.111       .  S
C1793      H1804   1.111       .  S
C1793      H1805   1.110       .  S
C1795      H1806   1.109       .  S
C1795      H1807   1.107       .  S
C1795      H1808   1.111       .  S
C1809      C1810   1.406       .  A
C1809      C1814   1.406       .  A
C1809      H1819   1.084       .  S
C1810      C1811   1.404       .  A
C1810      C1815   1.476       .  S
C1811      C1816   1.509       .  S
C1811      C1812   1.396       .  A
C1812      C1813   1.414       .  A
C1812      H1817   1.084       .  S
C1813      C1814   1.409       .  A
C1814      C1818   1.504       .  S
C1815      C1820   1.411       .  A
C1815      C1824   1.399       .  A
C1816      H1832   1.110       .  S
C1816      H1833   1.110       .  S
C1816      H1834   1.111       .  S
C1818      H1829   1.111       .  S
C1818      H1830   1.110       .  S
C1818      H1831   1.109       .  S
C1820      C1825   1.507       .  S
C1820      C1821   1.401       .  A
C1821      C1822   1.402       .  A
C1821      H1826   1.082       .  S
C1822      C1823   1.419       .  A
C1823      C1827   1.508       .  S
C1823      C1824   1.401       .  A
C1824      H1828   1.084       .  S
C1825      H1835   1.111       .  S
C1825      H1836   1.109       .  S
C1825      H1837   1.111       .  S
C1827      H1838   1.110       .  S
C1827      H1839   1.108       .  S
C1827      H1840   1.110       .  S
C1841      C4194   1.396       .  A
C1841      C1846   1.411       .  A
C1841      H1851   1.084       .  S
C1842      C4193   1.396       .  A
C1842      C1843   1.407   1_655  A
C1842      C1847   1.494   1_655  S
C1843      C1848   1.509       .  S
C1843      C1844   1.404       .  A
C1844      C1845   1.421   1_455  A
C1844      H1849   1.075       .  S
C1845      C3539   1.591       .  S
C1845      C4198   1.444       .  A
C1846      C1850   1.513       .  S
C1846      C4197   1.444       .  A
C1847      C4204   1.417   1_455  A
C1847      C1856   1.401       .  A
C1848      H1864   1.108       .  S
C1848      H1865   1.110       .  S
C1848      H1866   1.111       .  S
C1850      H1861   1.111       .  S
C1850      H1862   1.107       .  S
C1850      H1863   1.105       .  S
C1852      C1857   1.506       .  S
C1852      C4199   1.417       .  A
C1852      C1853   1.411       .  A
C1853      C4206   1.403       .  A
C1853      H1858   1.084       .  S
C1854      C4205   1.403   1_455  A
C1854      C1855   1.414       .  A
C1855      C1859   1.505       .  S
C1855      C1856   1.403       .  A
C1856      H1860   1.084       .  S
C1857      H1867   1.111       .  S
C1857      H1868   1.109       .  S
C1857      H1869   1.110       .  S
C1859      H1870   1.111       .  S
C1859      H1871   1.105       .  S
C1859      H1872   1.110       .  S
C1873      C1874   1.404       .  A
C1873      C1878   1.411       .  A
C1873      H1883   1.084       .  S
C1874      C4227   1.410       .  A
C1874      C1879   1.491       .  S
C1875      C1880   1.508       .  S
C1875      C4226   1.411   1_455  A
C1875      C1876   1.404       .  A
C1876      C4229   1.407   1_455  A
C1876      H1881   1.084       .  S
C1877      C4228   1.407       .  A
C1877      C1878   1.421       .  A
C1878      C1882   1.506       .  S
C1879      C1884   1.403       .  A
C1879      C4240   1.395       .  A
C1880      H1896   1.110       .  S
C1880      H1897   1.111       .  S
C1880      H1898   1.111       .  S
C1882      H1893   1.110       .  S
C1882      H1894   1.111       .  S
C1882      H1895   1.103       .  S
C1884      C1889   1.508       .  S
C1884      C1885   1.405       .  A
C1885      C1886   1.426       .  A
C1885      H1890   1.075       .  S
C1886      C4239   1.442       .  A
C1887      C1891   1.510       .  S
C1887      C4238   1.442   1_455  A
C1887      C1888   1.409       .  A
C1888      C4231   1.396   1_455  A
C1888      H1892   1.085       .  S
C1889      H1899   1.111       .  S
C1889      H1900   1.110       .  S
C1889      H1901   1.110       .  S
C1891      H1902   1.110       .  S
C1891      H1903   1.096       .  S
C1891      H1904   1.111       .  S
C1905      C1906   1.400       .  A
C1905      C1910   1.418       .  A
C1905      H1915   1.084       .  S
C1906      C1907   1.406       .  A
C1906      C1911   1.502       .  S
C1907      C1912   1.509       .  S
C1907      C1908   1.407       .  A
C1908      C1909   1.424       .  A
C1908      H1913   1.074       .  S
C1909      C3539   1.603   1_455  S
C1909      C1910   1.443       .  A
C1910      C1914   1.512   1_455  S
C1911      C1916   1.415       .  A
C1911      C1920   1.400       .  A
C1912      H1928   1.110       .  S
C1912      H1929   1.108       .  S
C1912      H1930   1.111       .  S
C1914      H1925   1.108       .  S
C1914      H1926   1.110       .  S
C1914      H1927   1.105       .  S
C1916      C1921   1.506       .  S
C1916      C1917   1.417       .  A
C1917      C1918   1.411       .  A
C1917      H1922   1.084       .  S
C1918      C1919   1.425       .  A
C1919      C1923   1.506       .  S
C1919      C1920   1.409       .  A
C1920      H1924   1.085       .  S
C1921      H1931   1.111       .  S
C1921      H1932   1.110       .  S
C1921      H1933   1.108       .  S
C1923      H1934   1.110       .  S
C1923      H1935   1.099       .  S
C1923      H1936   1.111       .  S
C1937      C1938   1.396       .  A
C1937      C1942   1.408       .  A
C1937      H1947   1.085       .  S
C1938      C1939   1.401       .  A
C1938      C1943   1.487       .  S
C1939      C1944   1.508       .  S
C1939      C1940   1.404       .  A
C1940      C1941   1.428       .  A
C1940      H1945   1.076       .  S
C1941      C1942   1.440       .  A
C1942      C1946   1.510       .  S
C1943      C1948   1.406       .  A
C1943      C1952   1.403       .  A
C1944      H1960   1.110       .  S
C1944      H1961   1.110       .  S
C1944      H1962   1.111       .  S
C1946      H1957   1.110       .  S
C1946      H1958   1.111       .  S
C1946      H1959   1.097       .  S
C1948      C1953   1.508       .  S
C1948      C1949   1.402       .  A
C1949      C1950   1.414       .  A
C1949      H1954   1.083       .  S
C1950      C1951   1.421       .  A
C1951      C1955   1.506       .  S
C1951      C1952   1.411       .  A
C1952      H1956   1.084       .  S
C1953      H1963   1.111       .  S
C1953      H1964   1.110       .  S
C1953      H1965   1.110       .  S
C1955      H1966   1.111       .  S
C1955      H1967   1.110       .  S
C1955      H1968   1.111       .  S
C1969      C1970   1.392   1_565  A
C1969      C1974   1.408       .  A
C1969      H1979   1.086       .  S
C1970      C1975   1.484       .  S
C1971      C1976   1.507       .  S
C1971      C1972   1.403       .  A
C1972      H1977   1.083       .  S
C1973      C1974   1.449   1_545  A
C1974      C1978   1.515       .  S
C1975      C1984   1.395   1_545  A
C1976      H1993   1.111       .  S
C1976      H1994   1.111       .  S
C1978      H1990   1.096       .  S
C1978      H1991   1.110       .  S
C1980      C1985   1.505       .  S
C1980      C1981   1.413       .  A
C1981      H1986   1.084       .  S
C1982      C1983   1.420       .  A
C1983      C1987   1.509       .  S
C1983      C1984   1.398       .  A
C1984      H1988   1.085       .  S
C1985      H1995   1.111       .  S
C1985      H1996   1.110       .  S
C1985      H1997   1.111       .  S
C1987      H1998   1.107       .  S
C1987      H1999   1.109       .  S
C1987      H2000   1.111       .  S
C2001      C2006   1.409       .  A
C2001      H2011   1.085       .  S
C2002      C2003   1.402       .  A
C2002      C2007   1.486       .  S
C2003      C2008   1.508       .  S
C2003      C2004   1.403       .  A
C2004      C2005   1.426       .  A
C2004      H2009   1.077       .  S
C2006      C2010   1.504       .  S
C2007      C2012   1.412       .  A
C2008      H2024   1.110       .  S
C2008      H2025   1.109       .  S
C2008      H2026   1.111       .  S
C2010      H2021   1.111       .  S
C2010      H2022   1.111       .  S
C2010      H2023   1.085       .  S
C2012      C2017   1.505       .  S
C2012      C2013   1.409       .  A
C2013      C2014   1.406       .  A
C2013      H2018   1.084       .  S
C2015      C2019   1.508       .  S
C2015      C2016   1.404       .  A
C2016      H2020   1.084       .  S
C2017      H2027   1.111       .  S
C2017      H2028   1.110       .  S
C2017      H2029   1.109       .  S
C2019      H2030   1.111       .  S
C2019      H2031   1.110       .  S
C2019      H2032   1.110       .  S
C2033      C2034   1.398       .  A
C2033      C2038   1.410       .  A
C2033      H2043   1.085       .  S
C2034      C2035   1.405       .  A
C2034      C2039   1.492       .  S
C2035      C2040   1.510       .  S
C2035      C2036   1.402       .  A
C2036      C2037   1.426       .  A
C2036      H2041   1.076       .  S
C2037      C2038   1.441       .  A
C2038      C2042   1.509       .  S
C2039      C2044   1.414       .  A
C2039      C2048   1.398       .  A
C2040      H2056   1.108       .  S
C2040      H2057   1.111       .  S
C2040      H2058   1.111       .  S
C2042      H2053   1.111       .  S
C2042      H2054   1.110       .  S
C2042      H2055   1.096       .  S
C2044      C2049   1.506       .  S
C2044      C2045   1.411       .  A
C2045      C2046   1.409       .  A
C2045      H2050   1.082       .  S
C2046      C2047   1.425       .  A
C2047      C2051   1.511       .  S
C2047      C2048   1.402       .  A
C2048      H2052   1.084       .  S
C2049      H2059   1.111       .  S
C2049      H2060   1.109       .  S
C2049      H2061   1.110       .  S
C2051      H2062   1.109       .  S
C2051      H2063   1.111       .  S
C2051      H2064   1.111       .  S
C2065      C2066   1.399       .  A
C2065      C2070   1.414       .  A
C2065      H2075   1.086       .  S
C2066      C2067   1.405       .  A
C2066      C2071   1.494       .  S
C2067      C2072   1.509       .  S
C2067      C2068   1.403       .  A
C2068      C2069   1.422       .  A
C2068      H2073   1.079       .  S
C2069      C2070   1.441       .  A
C2070      C2074   1.511   1_565  S
C2071      C2076   1.413       .  A
C2071      C2080   1.404       .  A
C2072      H2088   1.109       .  S
C2072      H2089   1.110       .  S
C2072      H2090   1.111       .  S
C2074      H2085   1.111   1_545  S
C2074      H2086   1.108       .  S
C2076      C2081   1.507       .  S
C2076      C2077   1.405       .  A
C2077      C2078   1.406       .  A
C2077      H2082   1.084       .  S
C2078      C2079   1.419       .  A
C2079      C2083   1.507       .  S
C2079      C2080   1.410       .  A
C2080      H2084   1.084       .  S
C2081      H2091   1.111       .  S
C2081      H2092   1.109       .  S
C2081      H2093   1.110       .  S
C2083      H2094   1.111       .  S
C2083      H2095   1.110       .  S
C2083      H2096   1.109       .  S
C2097      C2098   1.400       .  A
C2097      C2102   1.402       .  A
C2097      H2107   1.084       .  S
C2098      C2099   1.412       .  A
C2098      C2103   1.485       .  S
C2099      C2104   1.506       .  S
C2099      C2100   1.407       .  A
C2100      C2101   1.405       .  A
C2100      H2105   1.083       .  S
C2101      C2102   1.417       .  A
C2102      C2106   1.507       .  S
C2103      C2108   1.409       .  A
C2103      C2112   1.403       .  A
C2104      H2120   1.110       .  S
C2104      H2121   1.111       .  S
C2104      H2122   1.111       .  S
C2106      H2117   1.110       .  S
C2106      H2118   1.110       .  S
C2106      H2119   1.108       .  S
C2108      C2113   1.506       .  S
C2108      C2109   1.403       .  A
C2109      C2110   1.408       .  A
C2109      H2114   1.083       .  S
C2110      C2111   1.414       .  A
C2111      C2115   1.502       .  S
C2111      C2112   1.405       .  A
C2112      H2116   1.085       .  S
C2113      H2123   1.111       .  S
C2113      H2124   1.110       .  S
C2113      H2125   1.111       .  S
C2115      H2126   1.111       .  S
C2115      H2127   1.103       .  S
C2115      H2128   1.110       .  S
C2129      C2130   1.401       .  A
C2129      C2134   1.399       .  A
C2129      H2139   1.085       .  S
C2130      C2131   1.409       .  A
C2130      C2135   1.471       .  S
C2131      C2136   1.506       .  S
C2131      C2132   1.398       .  A
C2132      C2133   1.401       .  A
C2132      H2137   1.084       .  S
C2133      C2134   1.412       .  A
C2134      C2138   1.507       .  S
C2135      C2140   1.408       .  A
C2135      C2144   1.396       .  A
C2136      H2152   1.110       .  S
C2136      H2153   1.110       .  S
C2136      H2154   1.111       .  S
C2138      H2149   1.110       .  S
C2138      H2150   1.110       .  S
C2138      H2151   1.107       .  S
C2140      C2145   1.507       .  S
C2140      C2141   1.401       .  A
C2141      C2142   1.408       .  A
C2141      H2146   1.084       .  S
C2142      C2143   1.422       .  A
C2143      C2147   1.507       .  S
C2143      C2144   1.400       .  A
C2144      H2148   1.085       .  S
C2145      H2155   1.111       .  S
C2145      H2156   1.110       .  S
C2145      H2157   1.110       .  S
C2147      H2158   1.111       .  S
C2147      H2159   1.109       .  S
C2147      H2160   1.108       .  S
C2161      C2162   1.391       .  A
C2161      C2166   1.393       .  A
C2161      H2171   1.085       .  S
C2162      C2163   1.411       .  A
C2162      C2167   1.466       .  S
C2163      C2168   1.505       .  S
C2163      C2164   1.404       .  A
C2164      C2165   1.399       .  A
C2164      H2169   1.084       .  S
C2165      C2166   1.424       .  A
C2166      C2170   1.510       .  S
C2167      C2172   1.408       .  A
C2167      C2176   1.400       .  A
C2168      H2184   1.111       .  S
C2168      H2185   1.109       .  S
C2168      H2186   1.111       .  S
C2170      H2181   1.107       .  S
C2170      H2182   1.111       .  S
C2170      H2183   1.109       .  S
C2172      C2177   1.507       .  S
C2172      C2173   1.397       .  A
C2173      C2174   1.400       .  A
C2173      H2178   1.084       .  S
C2174      C2175   1.413       .  A
C2175      C2179   1.507       .  S
C2175      C2176   1.399       .  A
C2176      H2180   1.084       .  S
C2177      H2187   1.110       .  S
C2177      H2188   1.111       .  S
C2177      H2189   1.110       .  S
C2179      H2190   1.110       .  S
C2179      H2191   1.108       .  S
C2179      H2192   1.110       .  S
C2193      C2194   1.404       .  A
C2193      C2198   1.407       .  A
C2193      H2203   1.084       .  S
C2194      C2195   1.414       .  A
C2194      C2199   1.499       .  S
C2195      C2200   1.505       .  S
C2195      C2196   1.410       .  A
C2196      C2197   1.406       .  A
C2196      H2201   1.084       .  S
C2197      C2198   1.419       .  A
C2198      C2202   1.509       .  S
C2199      C2204   1.414       .  A
C2199      C2208   1.401       .  A
C2200      H2216   1.109       .  S
C2200      H2217   1.110       .  S
C2200      H2218   1.111       .  S
C2202      H2213   1.110       .  S
C2202      H2214   1.110       .  S
C2202      H2215   1.107       .  S
C2204      C2209   1.507       .  S
C2204      C2205   1.413       .  A
C2205      C2206   1.410       .  A
C2205      H2210   1.084       .  S
C2206      C2207   1.424       .  A
C2207      C2211   1.508       .  S
C2207      C2208   1.410       .  A
C2208      H2212   1.084       .  S
C2209      H2219   1.111       .  S
C2209      H2220   1.109       .  S
C2209      H2221   1.111       .  S
C2211      H2222   1.111       .  S
C2211      H2223   1.109       .  S
C2211      H2224   1.111       .  S
C2225      C2230   1.398       .  A
C2225      H2235   1.085       .  S
C2226      C2227   1.413       .  A
C2226      C2231   1.481       .  S
C2227      C2232   1.505       .  S
C2227      C2228   1.410       .  A
C2228      C2229   1.403   1_545  A
C2228      H2233   1.084       .  S
C2230      C2234   1.511       .  S
C2231      C2236   1.399   1_545  A
C2232      H2248   1.110       .  S
C2232      H2249   1.109       .  S
C2232      H2250   1.111       .  S
C2234      H2245   1.108       .  S
C2234      H2246   1.111       .  S
C2234      H2247   1.109       .  S
C2236      C2241   1.510       .  S
C2236      C2237   1.400       .  A
C2237      C2238   1.430   1_565  A
C2237      H2242   1.075       .  S
C2239      C2243   1.507       .  S
C2239      C2240   1.410       .  A
C2240      H2244   1.084       .  S
C2241      H2251   1.111       .  S
C2241      H2252   1.110       .  S
C2241      H2253   1.109       .  S
C2243      H2254   1.111       .  S
C2243      H2255   1.091       .  S
C2243      H2256   1.110       .  S
C2257      C2262   1.405       .  A
C2257      H2267   1.085       .  S
C2258      C2259   1.404       .  A
C2258      C2263   1.488       .  S
C2259      C2264   1.506       .  S
C2259      C2260   1.407       .  A
C2260      C2261   1.421       .  A
C2260      H2265   1.076       .  S
C2262      C2266   1.515       .  S
C2263      C2268   1.413       .  A
C2264      H2280   1.110       .  S
C2264      H2281   1.110       .  S
C2264      H2282   1.111       .  S
C2266      H2277   1.111       .  S
C2266      H2278   1.108       .  S
C2266      H2279   1.107   1_565  S
C2268      C2273   1.506       .  S
C2268      C2269   1.405       .  A
C2269      C2270   1.404       .  A
C2269      H2274   1.084       .  S
C2271      C2275   1.509       .  S
C2271      C2272   1.405       .  A
C2272      H2276   1.084       .  S
C2273      H2283   1.111       .  S
C2273      H2284   1.109       .  S
C2273      H2285   1.110       .  S
C2275      H2286   1.109       .  S
C2275      H2287   1.111       .  S
C2275      H2288   1.111       .  S
C2289      C2290   1.402       .  A
C2289      C2294   1.409       .  A
C2289      H2299   1.085       .  S
C2290      C2291   1.405       .  A
C2290      C2295   1.482       .  S
C2291      C2296   1.511       .  S
C2291      C2292   1.399       .  A
C2292      C2293   1.414       .  A
C2292      H2297   1.084       .  S
C2293      C2294   1.426       .  A
C2294      C2298   1.508       .  S
C2295      C2300   1.401       .  A
C2295      C2304   1.388       .  A
C2296      H2312   1.111       .  S
C2296      H2313   1.107       .  S
C2296      H2314   1.111       .  S
C2298      H2309   1.110       .  S
C2298      H2310   1.110       .  S
C2298      H2311   1.099       .  S
C2300      C2305   1.509       .  S
C2300      C2301   1.402       .  A
C2301      C2302   1.426       .  A
C2301      H2306   1.083       .  S
C2302      C2303   1.455       .  A
C2303      C2307   1.516       .  S
C2303      C2304   1.407       .  A
C2304      H2308   1.085       .  S
C2305      H2315   1.111       .  S
C2305      H2316   1.110       .  S
C2305      H2317   1.107       .  S
C2307      H2318   1.102       .  S
C2307      H2319   1.102       .  S
C2307      H2320   1.111       .  S
C2321      C2322   1.393       .  A
C2321      C2326   1.404       .  A
C2321      H2331   1.085       .  S
C2322      C2323   1.404       .  A
C2322      C2327   1.484       .  S
C2323      C2328   1.507       .  S
C2323      C2324   1.406       .  A
C2324      C2325   1.423       .  A
C2324      H2329   1.077       .  S
C2325      C2326   1.443       .  A
C2326      C2330   1.516       .  S
C2327      C2332   1.410       .  A
C2327      C2336   1.398       .  A
C2328      H2344   1.110       .  S
C2328      H2345   1.110       .  S
C2328      H2346   1.111       .  S
C2330      H2341   1.111       .  S
C2330      H2342   1.107       .  S
C2330      H2343   1.105       .  S
C2332      C2337   1.506       .  S
C2332      C2333   1.407       .  A
C2333      C2334   1.409       .  A
C2333      H2338   1.084       .  S
C2334      C2335   1.424       .  A
C2335      C2339   1.508       .  S
C2335      C2336   1.404       .  A
C2336      H2340   1.084       .  S
C2337      H2347   1.111       .  S
C2337      H2348   1.110       .  S
C2337      H2349   1.110       .  S
C2339      H2350   1.108       .  S
C2339      H2351   1.109       .  S
C2339      H2352   1.111       .  S
C2353      C4590   1.598       .  S
C2353      C3437   1.571   1_545  S
C2353      C3478   1.590       .  S
C2353      C4677   1.581   1_545  S
C2354      C2355   1.412   1_554  A
C2354      C2359   1.397       .  A
C2354      C3309   1.468       .  S
C2355      C2356   1.403       .  A
C2355      C3373   1.492       .  S
C2356      H2361   1.085       .  S
C2357      C2358   1.410   1_556  A
C2357      C3350   1.469       .  S
C2358      C3277   1.483       .  S
C2359      H2360   1.086       .  S
C2362      C4325   1.586       .  S
C2362      C3181   1.600       .  S
C2362      C3213   1.592       .  S
C2362      C4421   1.583   1_545  S
C2363      C3062   1.593       .  S
C2363      C3117   1.585       .  S
C2364      C2365   1.412   1_554  A
C2364      C3545   1.398       .  A
C2364      C2934   1.477       .  S
C2365      C3542   1.405       .  A
C2365      C2998   1.477       .  S
C2366      C3541   1.403   1_545  A
C2366      C2367   1.398       .  A
C2366      H2371   1.085       .  S
C2367      C2368   1.407   1_556  A
C2367      C2957   1.477       .  S
C2368      C2369   1.395       .  A
C2368      C2902   1.473       .  S
C2369      C3540   1.399   1_545  A
C2369      H2370   1.085       .  S
O2372      C2380   1.265       .  A
O2372     Co2392   1.987       .  S
O2373      C2381   1.250       .  A
O2373     Co2393   1.947       .  S
O2374      C2382   1.268       .  A
O2374     Co2394   2.030       .  S
O2375      C2383   1.281       .  A
O2375     Co2395   2.052       .  S
O2376      C2382   1.254       .  A
O2376     Co2393   1.956       .  S
O2377      C2383   1.260       .  A
O2377     Co2392   1.945       .  S
O2378      C2381   1.274       .  A
O2378     Co2395   2.051       .  S
O2379      C2380   1.273       .  A
O2379     Co2394   2.035       .  S
C2380      C3382   1.502       .  S
C2381      C3222   1.501       .  S
C2382      C2966   1.473       .  S
C2383      C3126   1.498       .  S
O2384      C2397   1.268       .  A
O2384     Co2392   2.022       .  S
O2385      C2398   1.282       .  A
O2385     Co2393   2.082       .  S
O2386      C2399   1.240       .  A
O2386     Co2394   1.903       .  S
O2387      C2400   1.263       .  A
O2387     Co2395   1.985       .  S
O2388      C2400   1.275       .  A
O2388     Co2393   2.042       .  S
O2389      C2399   1.281       .  A
O2389     Co2392   2.079       .  S
O2390      C2397   1.259       .  A
O2390     Co2395   1.983       .  S
O2391      C2398   1.242       .  A
O2391     Co2394   1.894       .  S
Co2392     O2396   2.110       .  S
Co2393     O2396   2.090       .  S
Co2394     O2396   1.951       .  S
Co2395     O2396   2.072       .  S
C2397      C3254   1.497       .  S
C2398      C3341   1.465       .  S
C2399      C2989   1.477       .  S
C2400      C3094   1.504       .  S
O2401      C2409   1.266       .  A
O2401     Co2421   1.970       .  S
O2402      C2410   1.254       .  A
O2402     Co2422   1.973       .  S
O2403      C2411   1.273       .  A
O2403     Co2423   2.042       .  S
O2404      C2412   1.292       .  A
O2404     Co2424   2.095       .  S
O2405      C2411   1.257       .  A
O2405     Co2422   1.951       .  S
O2406      C2412   1.267       .  A
O2406     Co2421   1.898       .  S
O2407      C2410   1.254       .  A
O2407     Co2424   1.996       .  S
O2408      C2409   1.279       .  A
O2408     Co2423   2.036       .  S
C2409      C2870   1.494       .  S
C2410      C2893   1.485       .  S
C2411      C3469   1.499       .  S
C2412      C3318   1.483       .  S
O2413      C2426   1.298       .  A
O2413     Co2421   2.120       .  S
O2414      C2427   1.273       .  A
O2414     Co2422   2.028       .  S
O2415      C2428   1.258       .  A
O2415     Co2423   1.981       .  S
O2416      C2429   1.264       .  A
O2416     Co2424   1.955       .  S
O2417      C2429   1.282       .  A
O2417     Co2422   2.044       .  S
O2418      C2428   1.264       .  A
O2418     Co2421   2.004       .  S
O2419      C2426   1.257       .  A
O2419     Co2424   1.873       .  S
O2420      C2427   1.262       .  A
O2420     Co2423   1.969       .  S
Co2421     O2425   2.020       .  S
Co2422     O2425   2.026       .  S
Co2423     O2425   2.035       .  S
Co2424     O2425   1.995       .  S
C2426      C2925   1.486       .  S
C2427      C2838   1.498       .  S
C2428      C3510   1.494       .  S
C2429      C3286   1.481       .  S
O2430      C2438   1.261       .  A
O2430     Co2450   1.998       .  S
O2431      C2439   1.278   1_655  A
O2431     Co2451   2.033       .  S
O2432     Co3628   1.972       .  S
O2433      C3617   1.258       .  A
O2433     Co3629   1.872       .  S
O2434      C2440   1.276       .  A
O2434     Co2451   2.043       .  S
O2435      C2441   1.301   1_545  A
O2435     Co2450   2.123       .  S
O2436     Co3629   1.964       .  S
O2437      C3614   1.260       .  A
O2437     Co3628   1.982       .  S
C2438      C3190   1.483       .  S
C2438      O3613   1.259   1_545  A
C2439      C2806   1.488       .  S
C2440      C3053   1.497       .  S
C2441      C2701   1.479       .  S
C2441      O3609   1.261       .  A
O2442      C2455   1.263       .  A
O2442     Co2450   1.902       .  S
O2443      C2456   1.250       .  A
O2443     Co2451   1.950       .  S
O2444      C2457   1.280       .  A
O2444     Co2452   2.038   1_545  S
O2445      C3634   1.262   1_565  A
O2446      C2458   1.254       .  A
O2446     Co2451   1.970       .  S
O2447      C2457   1.269       .  A
O2447     Co2450   1.974       .  S
O2448      C2455   1.290       .  A
O2448     Co2453   2.092   1_545  S
O2449      C3632   1.271       .  A
Co2450     O2454   2.015   1_545  S
Co2452     O3608   1.968       .  S
Co2452     O3613   1.984       .  S
Co2452     O2454   2.054       .  S
Co2453     O3609   1.871       .  S
Co2453     O3612   1.968       .  S
Co2453     O2454   2.005       .  S
C2455      C2774   1.473       .  S
C2456      C3158   1.484       .  S
C2456      O3625   1.273       .  A
C2457      C3030   1.484       .  S
C2458      C2733   1.479       .  S
C2458      O3621   1.258       .  A
O2459      C2467   1.264       .  A
O2459     Co2479   1.968       .  S
O2460      C2468   1.254       .  A
O2460     Co2480   1.974       .  S
O2461      C2469   1.274       .  A
O2462      C2470   1.295       .  A
O2462     Co3658   2.104   1_545  S
O2463      C2469   1.251       .  A
O2463     Co2480   1.947       .  S
O2464      C2470   1.265       .  A
O2464     Co2479   1.897       .  S
O2465      C2468   1.254       .  A
O2466      C2467   1.281       .  A
O2466     Co3657   2.043   1_545  S
C2467      C2541   1.501       .  S
C2468      C2669   1.484       .  S
C2469      C3405   1.481       .  S
C2470      C2582   1.491       .  S
O2471      C2484   1.299   1_545  A
O2471     Co2479   2.127       .  S
O2472      C2485   1.275       .  A
O2472     Co2480   2.035       .  S
O2473      C3662   1.260       .  A
O2473     Co2481   1.982       .  S
O2474     Co2482   1.957       .  S
O2475      C2487   1.280   1_655  A
O2475     Co2480   2.036       .  S
O2476      C2486   1.265   1_545  A
O2476     Co2479   2.006       .  S
O2477      C3660   1.256       .  A
O2477     Co2482   1.865       .  S
O2478     Co2481   1.976       .  S
Co2479     O3659   2.017   1_545  S
Co2481     O3642   2.036       .  S
Co2481     O2483   2.047       .  S
Co2482     O3638   2.106       .  S
Co2482     O2483   1.995       .  S
O2483     Co3655   2.013       .  S
C2484      C2646   1.483       .  S
C2484      O3653   1.255       .  A
C2485      C2518   1.493       .  S
C2486      C3446   1.486       .  S
C2486      O3649   1.258       .  A
C2487      C2614   1.483       .  S
C2488      C2489   1.421       .  A
C2488      C2493   1.406       .  A
C2488      C2605   1.486       .  S
C2489      C2490   1.406       .  A
C2489      C2797   1.492       .  S
C2490      C2491   1.399       .  A
C2490      H2495   1.085       .  S
C2491      C2492   1.405       .  A
C2491      C2765   1.475       .  S
C2492      C2493   1.399       .  A
C2492      C2573   1.483       .  S
C2493      H2494   1.085       .  S
C2496      C2497   1.404       .  A
C2496      C2501   1.398       .  A
C2496      C2742   1.471       .  S
C2497      C2498   1.394       .  A
C2497      C2678   1.471       .  S
C2498      C2499   1.399       .  A
C2498      H2503   1.085       .  S
C2499      C2500   1.416       .  A
C2499      C2637   1.474       .  S
C2500      C2501   1.402       .  A
C2500      C2710   1.481       .  S
C2501      H2502   1.085       .  S
C2504      C2550   1.604       .  S
C2504      C2829   1.584       .  S
C2505      C2510   1.412       .  A
C2505      H2515   1.085       .  S
C2506      C2507   1.405       .  A
C2506      C2511   1.498       .  S
C2507      C2512   1.506       .  S
C2507      C2508   1.410       .  A
C2508      C2509   1.425       .  A
C2508      H2513   1.083       .  S
C2510      C2514   1.517       .  S
C2511      C2520   1.403       .  A
C2512      H2528   1.110       .  S
C2512      H2529   1.110       .  S
C2512      H2530   1.111       .  S
C2514      H2525   1.111       .  S
C2514      H2526   1.105       .  S
C2514      H2527   1.102       .  S
C2516      C2521   1.507       .  S
C2516      C2517   1.409       .  A
C2517      H2522   1.084       .  S
C2518      C2519   1.423       .  A
C2519      C2523   1.509       .  S
C2519      C2520   1.409       .  A
C2520      H2524   1.084       .  S
C2521      H2531   1.111       .  S
C2521      H2532   1.109       .  S
C2521      H2533   1.110       .  S
C2523      H2534   1.111       .  S
C2523      H2535   1.102       .  S
C2523      H2536   1.110       .  S
C2537      C2542   1.409       .  A
C2537      H2547   1.084       .  S
C2538      C2539   1.413       .  A
C2538      C2543   1.495       .  S
C2539      C2544   1.507       .  S
C2539      C2540   1.410       .  A
C2540      C2541   1.409       .  A
C2540      H2545   1.084       .  S
C2542      C2546   1.508       .  S
C2543      C2552   1.396       .  A
C2544      H2560   1.110       .  S
C2544      H2561   1.111       .  S
C2544      H2562   1.111       .  S
C2546      H2557   1.111       .  S
C2546      H2558   1.109       .  S
C2546      H2559   1.111       .  S
C2548      C2553   1.508       .  S
C2548      C2549   1.407       .  A
C2549      H2554   1.077       .  S
C2550      C2551   1.442       .  A
C2551      C2555   1.505       .  S
C2551      C2552   1.410       .  A
C2552      H2556   1.085       .  S
C2553      H2563   1.111       .  S
C2553      H2564   1.109       .  S
C2553      H2565   1.110       .  S
C2555      H2566   1.110       .  S
C2555      H2567   1.087       .  S
C2555      H2568   1.111       .  S
C2569      C2574   1.402       .  A
C2569      H2579   1.084       .  S
C2570      C2571   1.411       .  A
C2570      C2575   1.481       .  S
C2571      C2576   1.506       .  S
C2571      C2572   1.404       .  A
C2572      H2577   1.084       .  S
C2573      C2574   1.415   1_455  A
C2574      C2578   1.507       .  S
C2575      C2584   1.401       .  A
C2576      H2592   1.110       .  S
C2576      H2593   1.110       .  S
C2576      H2594   1.111       .  S
C2578      H2589   1.110       .  S
C2578      H2590   1.110       .  S
C2578      H2591   1.108       .  S
C2580      C2585   1.506   1_455  S
C2580      C2581   1.403       .  A
C2581      H2586   1.083       .  S
C2582      C2583   1.421       .  A
C2583      C2587   1.508       .  S
C2583      C2584   1.405       .  A
C2584      H2588   1.084       .  S
C2585      H2595   1.111       .  S
C2585      H2596   1.110       .  S
C2587      H2598   1.111       .  S
C2587      H2599   1.111       .  S
C2587      H2600   1.110       .  S
C2601      C2606   1.400       .  A
C2601      H2611   1.085       .  S
C2602      C2603   1.411   1_455  A
C2602      C2607   1.481       .  S
C2603      C2608   1.505       .  S
C2603      C2604   1.407       .  A
C2604      C2605   1.405   1_655  A
C2604      H2609   1.084       .  S
C2606      C2610   1.512       .  S
C2607      C2616   1.404   1_455  A
C2608      H2624   1.110       .  S
C2608      H2625   1.110       .  S
C2608      H2626   1.111       .  S
C2610      H2621   1.111       .  S
C2610      H2622   1.107       .  S
C2610      H2623   1.107       .  S
C2612      C2617   1.508       .  S
C2612      C2613   1.400       .  A
C2613      H2618   1.083       .  S
C2614      C2615   1.414   1_455  A
C2615      C2619   1.507       .  S
C2615      C2616   1.408       .  A
C2616      H2620   1.084       .  S
C2617      H2627   1.111       .  S
C2617      H2628   1.110       .  S
C2617      H2629   1.110       .  S
C2619      H2630   1.110       .  S
C2619      H2631   1.109       .  S
C2619      H2632   1.111       .  S
C2633      C3810   1.401       .  A
C2633      C2638   1.402       .  A
C2633      H2643   1.084       .  S
C2634      C3809   1.403       .  A
C2634      C2635   1.409   1_565  A
C2634      C2639   1.479       .  S
C2635      C2640   1.507       .  S
C2635      C2636   1.401       .  A
C2636      C3813   1.405       .  A
C2636      H2641   1.084       .  S
C2637      C3812   1.402       .  A
C2637      C2638   1.414       .  A
C2638      C2642   1.507       .  S
C2639      C2644   1.412       .  A
C2639      C3824   1.394   1_565  A
C2640      H2656   1.110       .  S
C2640      H2657   1.109       .  S
C2640      H2658   1.111       .  S
C2642      H2653   1.110       .  S
C2642      H2654   1.110       .  S
C2642      H2655   1.107       .  S
C2644      C2649   1.505       .  S
C2644      C2645   1.409       .  A
C2645      C2646   1.405       .  A
C2645      H2650   1.084       .  S
C2646      C3823   1.423   1_565  A
C2647      C2651   1.511       .  S
C2647      C3822   1.423       .  A
C2647      C2648   1.394       .  A
C2648      C3815   1.393       .  A
C2648      H2652   1.085       .  S
C2649      H2659   1.111       .  S
C2649      H2660   1.110       .  S
C2649      H2661   1.109       .  S
C2651      H2662   1.111       .  S
C2651      H2663   1.109       .  S
C2651      H2664   1.108       .  S
C2665      C3842   1.399       .  A
C2665      C2670   1.404   1_545  A
C2665      H2675   1.084   1_545  S
C2666      C3841   1.400       .  A
C2666      C2667   1.408       .  A
C2666      C2671   1.475       .  S
C2667      C2672   1.509       .  S
C2667      C2668   1.397       .  A
C2668      C2669   1.407       .  A
C2668      H2673   1.084       .  S
C2669      C3846   1.421       .  A
C2670      C2674   1.508       .  S
C2670      C3845   1.421   1_565  A
C2671      C2676   1.412       .  A
C2671      C3856   1.401       .  A
C2672      H2688   1.109       .  S
C2672      H2689   1.110       .  S
C2672      H2690   1.111       .  S
C2674      H2685   1.110       .  S
C2674      H2686   1.111       .  S
C2674      H2687   1.110   1_565  S
C2676      C2681   1.508       .  S
C2676      C2677   1.399       .  A
C2677      C2678   1.400       .  A
C2677      H2682   1.084       .  S
C2678      C3855   1.412       .  A
C2679      C2683   1.507       .  S
C2679      C3854   1.413       .  A
C2679      C2680   1.400       .  A
C2680      C3847   1.401       .  A
C2680      H2684   1.084       .  S
C2681      H2691   1.111       .  S
C2681      H2692   1.110       .  S
C2681      H2693   1.110       .  S
C2683      H2694   1.110       .  S
C2683      H2695   1.108       .  S
C2683      H2696   1.110       .  S
C2697      C2698   1.399       .  A
C2697      C2702   1.402       .  A
C2697      H2707   1.084       .  S
C2698      C3875   1.412   1_565  A
C2698      C2703   1.481       .  S
C2699      C2704   1.506       .  S
C2699      C3874   1.413       .  A
C2699      C2700   1.406       .  A
C2700      C3877   1.404       .  A
C2700      H2705   1.084       .  S
C2701      C3876   1.404   1_565  A
C2701      C2702   1.420       .  A
C2702      C2706   1.510       .  S
C2703      C3884   1.408       .  A
C2703      C2712   1.403   1_565  A
C2704      H2720   1.109       .  S
C2704      H2721   1.110       .  S
C2704      H2722   1.111       .  S
C2706      H2717   1.111       .  S
C2706      H2718   1.111       .  S
C2706      H2719   1.109       .  S
C2708      C2713   1.507       .  S
C2708      C3879   1.411       .  A
C2708      C2709   1.403       .  A
C2709      C2710   1.404       .  A
C2709      H2714   1.084       .  S
C2710      C3887   1.415       .  A
C2711      C2715   1.506       .  S
C2711      C3886   1.416       .  A
C2711      C2712   1.405       .  A
C2712      H2716   1.084       .  S
C2713      H2723   1.111       .  S
C2713      H2724   1.109       .  S
C2713      H2725   1.110       .  S
C2715      H2726   1.111       .  S
C2715      H2727   1.106       .  S
C2715      H2728   1.110       .  S
C2729      C2730   1.400       .  A
C2729      C2734   1.405       .  A
C2729      H2739   1.084       .  S
C2730      C3907   1.407       .  A
C2730      C2735   1.472       .  S
C2731      C2736   1.508       .  S
C2731      C3906   1.408       .  A
C2731      C2732   1.398       .  A
C2732      C3909   1.407       .  A
C2732      H2737   1.084       .  S
C2733      C3908   1.406       .  A
C2733      C2734   1.418       .  A
C2734      C2738   1.508       .  S
C2735      C3916   1.409       .  A
C2735      C2744   1.400       .  A
C2736      H2752   1.110   1_545  S
C2736      H2753   1.110       .  S
C2736      H2754   1.111       .  S
C2738      H2749   1.111       .  S
C2738      H2750   1.109       .  S
C2738      H2751   1.110       .  S
C2740      C2745   1.506       .  S
C2740      C3911   1.409       .  A
C2740      C2741   1.403       .  A
C2741      C3918   1.402       .  A
C2741      H2746   1.084       .  S
C2742      C3917   1.402       .  A
C2742      C2743   1.412       .  A
C2743      C2747   1.508       .  S
C2743      C2744   1.398       .  A
C2744      H2748   1.085       .  S
C2745      H2755   1.111       .  S
C2745      H2756   1.110       .  S
C2745      H2757   1.110       .  S
C2747      H2758   1.110       .  S
C2747      H2759   1.108       .  S
C2747      H2760   1.110       .  S
C2761      C2762   1.400       .  A
C2761      C2766   1.400       .  A
C2761      H2771   1.085       .  S
C2762      C2767   1.475       .  S
C2763      C2768   1.507   1_455  S
C2763      C2764   1.402       .  A
C2764      C2765   1.402       .  A
C2764      H2769   1.084   1_455  S
C2766      C2770   1.507       .  S
C2767      C2776   1.402       .  A
C2768      H2784   1.110       .  S
C2768      H2785   1.109       .  S
C2768      H2786   1.111       .  S
C2770      H2781   1.110       .  S
C2770      H2782   1.110       .  S
C2770      H2783   1.108       .  S
C2772      C2777   1.507       .  S
C2772      C2773   1.400       .  A
C2773      H2778   1.084       .  S
C2774      C2775   1.412       .  A
C2775      C2779   1.505       .  S
C2775      C2776   1.403       .  A
C2776      H2780   1.084       .  S
C2777      H2787   1.111       .  S
C2777      H2788   1.110       .  S
C2777      H2789   1.109       .  S
C2779      H2790   1.108       .  S
C2779      H2791   1.111       .  S
C2779      H2792   1.111       .  S
C2793      C2794   1.405       .  A
C2793      C2798   1.408       .  A
C2794      C2795   1.412   1_455  A
C2794      C2799   1.489       .  S
C2795      C2800   1.509       .  S
C2795      C2796   1.400       .  A
C2796      C2797   1.406   1_655  A
C2796      H2801   1.085       .  S
C2797      C2798   1.417       .  A
C2799      C2808   1.399   1_455  A
C2800      H2816   1.108       .  S
C2800      H2818   1.111       .  S
C2802      H2813   1.103       .  S
C2802      H2815   1.111       .  S
C2804      C2809   1.507       .  S
C2804      C2805   1.407       .  A
C2805      H2810   1.084       .  S
C2806      C2807   1.422   1_455  A
C2807      C2811   1.508       .  S
C2807      C2808   1.402       .  A
C2808      H2812   1.084       .  S
C2809      H2819   1.111       .  S
C2809      H2820   1.109       .  S
C2809      H2821   1.110       .  S
C2811      H2822   1.111       .  S
C2811      H2823   1.105       .  S
C2811      H2824   1.110       .  S
C2825      C2826   1.396       .  A
C2825      C2830   1.411       .  A
C2825      H2835   1.084       .  S
C2826      C2827   1.403       .  A
C2826      C2831   1.486       .  S
C2827      C2832   1.510       .  S
C2827      C2828   1.402       .  A
C2828      C2829   1.422       .  A
C2828      H2833   1.069       .  S
C2829      C2830   1.443       .  A
C2830      C2834   1.513       .  S
C2831      C2836   1.410       .  A
C2831      C2840   1.399       .  A
C2832      H2848   1.110       .  S
C2832      H2849   1.107       .  S
C2832      H2850   1.111       .  S
C2834      H2845   1.107       .  S
C2834      H2846   1.111       .  S
C2834      H2847   1.107       .  S
C2836      C2841   1.507       .  S
C2836      C2837   1.408       .  A
C2837      C2838   1.410       .  A
C2837      H2842   1.083       .  S
C2838      C2839   1.423       .  A
C2839      C2843   1.508       .  S
C2839      C2840   1.405       .  A
C2840      H2844   1.085       .  S
C2841      H2851   1.111       .  S
C2841      H2852   1.110       .  S
C2841      H2853   1.107       .  S
C2843      H2854   1.111       .  S
C2843      H2855   1.109       .  S
C2843      H2856   1.111       .  S
C2857      C2858   1.394       .  A
C2857      C2862   1.407       .  A
C2857      H2867   1.085       .  S
C2858      C2859   1.404       .  A
C2858      C2863   1.488       .  S
C2859      C2864   1.508       .  S
C2859      C2860   1.405       .  A
C2860      C2861   1.425       .  A
C2860      H2865   1.076       .  S
C2861      C2862   1.444       .  A
C2862      C2866   1.511       .  S
C2863      C2868   1.411       .  A
C2863      C2872   1.400       .  A
C2864      H2880   1.110       .  S
C2864      H2881   1.110       .  S
C2864      H2882   1.111       .  S
C2866      H2877   1.110       .  S
C2866      H2878   1.111       .  S
C2866      H2879   1.097       .  S
C2868      C2873   1.506       .  S
C2868      C2869   1.407       .  A
C2869      C2870   1.410       .  A
C2869      H2874   1.084       .  S
C2870      C2871   1.416       .  A
C2871      C2875   1.500       .  S
C2871      C2872   1.406       .  A
C2872      H2876   1.084       .  S
C2873      H2883   1.111       .  S
C2873      H2884   1.110       .  S
C2873      H2885   1.110       .  S
C2875      H2886   1.111       .  S
C2875      H2887   1.108       .  S
C2875      H2888   1.109       .  S
C2889      C2890   1.399       .  A
C2889      C2894   1.403       .  A
C2889      H2899   1.084       .  S
C2890      C2891   1.407       .  A
C2890      C2895   1.474       .  S
C2891      C2896   1.508       .  S
C2891      C2892   1.398       .  A
C2892      C2893   1.408       .  A
C2892      H2897   1.084       .  S
C2893      C2894   1.422       .  A
C2894      C2898   1.509       .  S
C2895      C2900   1.411       .  A
C2895      C2904   1.401       .  A
C2896      H2912   1.110       .  S
C2896      H2913   1.110       .  S
C2896      H2914   1.111       .  S
C2898      H2909   1.110       .  S
C2898      H2910   1.111       .  S
C2898      H2911   1.110       .  S
C2900      C2905   1.508       .  S
C2900      C2901   1.397       .  A
C2901      C2902   1.400       .  A
C2901      H2906   1.084       .  S
C2902      C2903   1.413       .  A
C2903      C2907   1.506       .  S
C2903      C2904   1.401       .  A
C2904      H2908   1.084       .  S
C2905      H2915   1.111       .  S
C2905      H2916   1.110       .  S
C2905      H2917   1.110       .  S
C2907      H2918   1.110       .  S
C2907      H2919   1.107       .  S
C2907      H2920   1.110       .  S
C2921      C2922   1.404       .  A
C2921      C2926   1.408       .  A
C2921      H2931   1.084       .  S
C2922      C2923   1.406       .  A
C2922      C2927   1.476       .  S
C2923      C2928   1.510       .  S
C2923      C2924   1.396       .  A
C2924      C2925   1.410       .  A
C2924      H2929   1.084       .  S
C2925      C2926   1.416       .  A
C2926      C2930   1.505       .  S
C2927      C2932   1.411       .  A
C2927      C2936   1.398       .  A
C2928      H2944   1.110       .  S
C2928      H2945   1.109       .  S
C2928      H2946   1.111       .  S
C2930      H2941   1.111       .  S
C2930      H2942   1.110       .  S
C2930      H2943   1.109       .  S
C2932      C2937   1.506       .  S
C2932      C2933   1.404       .  A
C2933      C2934   1.403       .  A
C2933      H2938   1.084       .  S
C2934      C2935   1.416       .  A
C2935      C2939   1.509       .  S
C2935      C2936   1.398       .  A
C2936      H2940   1.085       .  S
C2937      H2947   1.111       .  S
C2937      H2948   1.110       .  S
C2937      H2949   1.109       .  S
C2939      H2950   1.110       .  S
C2939      H2951   1.108       .  S
C2939      H2952   1.110       .  S
C2953      C2954   1.400       .  A
C2953      C2958   1.401       .  A
C2953      H2963   1.084       .  S
C2954      C2955   1.410       .  A
C2954      C2959   1.474       .  S
C2955      C2960   1.507       .  S
C2955      C2956   1.399       .  A
C2956      C2957   1.402       .  A
C2956      H2961   1.084       .  S
C2957      C2958   1.415       .  A
C2958      C2962   1.508       .  S
C2959      C2964   1.411       .  A
C2959      C2968   1.395       .  A
C2960      H2976   1.110       .  S
C2960      H2977   1.110       .  S
C2960      H2978   1.111       .  S
C2962      H2973   1.110       .  S
C2962      H2974   1.110       .  S
C2962      H2975   1.108       .  S
C2964      C2969   1.505       .  S
C2964      C2965   1.407       .  A
C2965      C2966   1.403       .  A
C2965      H2970   1.084       .  S
C2966      C2967   1.419       .  A
C2967      C2971   1.510       .  S
C2967      C2968   1.396       .  A
C2968      H2972   1.085       .  S
C2969      H2979   1.111       .  S
C2969      H2980   1.111       .  S
C2969      H2981   1.110       .  S
C2971      H2982   1.109       .  S
C2971      H2983   1.108       .  S
C2971      H2984   1.111       .  S
C2985      C2986   1.406       .  A
C2985      C2990   1.405       .  A
C2985      H2995   1.084       .  S
C2986      C2987   1.404       .  A
C2986      C2991   1.473       .  S
C2987      C2992   1.509       .  S
C2987      C2988   1.395       .  A
C2988      C2989   1.413       .  A
C2988      H2993   1.085       .  S
C2989      C2990   1.407       .  A
C2990      C2994   1.504       .  S
C2991      C2996   1.410       .  A
C2991      C3000   1.399       .  A
C2992      H3008   1.110       .  S
C2992      H3009   1.110       .  S
C2992      H3010   1.111       .  S
C2994      H3005   1.111       .  S
C2994      H3006   1.110       .  S
C2994      H3007   1.109       .  S
C2996      C3001   1.507       .  S
C2996      C2997   1.399       .  A
C2997      C2998   1.402       .  A
C2997      H3002   1.083       .  S
C2998      C2999   1.416       .  A
C2999      C3003   1.508       .  S
C2999      C3000   1.400       .  A
C3000      H3004   1.084       .  S
C3001      H3011   1.111       .  S
C3001      H3012   1.110       .  S
C3001      H3013   1.111       .  S
C3003      H3014   1.110       .  S
C3003      H3015   1.109       .  S
C3003      H3016   1.110       .  S
C3017      C3022   1.413       .  A
C3017      H3027   1.084       .  S
C3018      C3019   1.407       .  A
C3018      C3023   1.496       .  S
C3019      C3024   1.509       .  S
C3019      C3020   1.405       .  A
C3020      C3021   1.421       .  A
C3020      H3025   1.074       .  S
C3022      C3026   1.512       .  S
C3023      C3032   1.402       .  A
C3024      H3040   1.108       .  S
C3024      H3041   1.111       .  S
C3024      H3042   1.111       .  S
C3026      H3037   1.111       .  S
C3026      H3038   1.107       .  S
C3026      H3039   1.106       .  S
C3028      C3033   1.506       .  S
C3028      C3029   1.413       .  A
C3029      H3034   1.084       .  S
C3030      C3031   1.413       .  A
C3031      C3035   1.505       .  S
C3031      C3032   1.403       .  A
C3032      H3036   1.084       .  S
C3033      H3043   1.111       .  S
C3033      H3044   1.109       .  S
C3033      H3045   1.110       .  S
C3035      H3046   1.111       .  S
C3035      H3047   1.104       .  S
C3035      H3048   1.110       .  S
C3049      C3050   1.405       .  A
C3049      C3054   1.412       .  A
C3049      H3059   1.084       .  S
C3050      C3055   1.497       .  S
C3051      C3056   1.508       .  S
C3051      C3052   1.407       .  A
C3052      H3057   1.084       .  S
C3053      C3054   1.421       .  A
C3054      C3058   1.506       .  S
C3055      C3060   1.404       .  A
C3056      H3072   1.110       .  S
C3056      H3073   1.111       .  S
C3056      H3074   1.111       .  S
C3058      H3069   1.110       .  S
C3058      H3070   1.111       .  S
C3058      H3071   1.103       .  S
C3060      C3065   1.508       .  S
C3060      C3061   1.407       .  A
C3061      C3062   1.426       .  A
C3061      H3066   1.076       .  S
C3063      C3067   1.510       .  S
C3063      C3064   1.411       .  A
C3064      H3068   1.085       .  S
C3065      H3075   1.111       .  S
C3065      H3076   1.110       .  S
C3065      H3077   1.110       .  S
C3067      H3078   1.110       .  S
C3067      H3079   1.096       .  S
C3067      H3080   1.111       .  S
C3081      C3082   1.399       .  A
C3081      C3086   1.418       .  A
C3081      H3091   1.083       .  S
C3082      C3083   1.406       .  A
C3082      C3087   1.502       .  S
C3083      C3088   1.509       .  S
C3083      C3084   1.407       .  A
C3084      C3085   1.424       .  A
C3084      H3089   1.074       .  S
C3085      C3086   1.444       .  A
C3086      C3090   1.512       .  S
C3087      C3092   1.415       .  A
C3087      C3096   1.401       .  A
C3088      H3104   1.110       .  S
C3088      H3105   1.108       .  S
C3088      H3106   1.111       .  S
C3090      H3101   1.108       .  S
C3090      H3102   1.111       .  S
C3090      H3103   1.105       .  S
C3092      C3097   1.506       .  S
C3092      C3093   1.416       .  A
C3093      C3094   1.410       .  A
C3093      H3098   1.084       .  S
C3094      C3095   1.424       .  A
C3095      C3099   1.506       .  S
C3095      C3096   1.409       .  A
C3096      H3100   1.085       .  S
C3097      H3107   1.111       .  S
C3097      H3108   1.110       .  S
C3097      H3109   1.108       .  S
C3099      H3110   1.110       .  S
C3099      H3111   1.099       .  S
C3099      H3112   1.111       .  S
C3113      C3114   1.395       .  A
C3113      C3118   1.407       .  A
C3113      H3123   1.085       .  S
C3114      C3115   1.401       .  A
C3114      C3119   1.485       .  S
C3115      C3120   1.509       .  S
C3115      C3116   1.403       .  A
C3116      C3117   1.428       .  A
C3116      H3121   1.076       .  S
C3117      C3118   1.440       .  A
C3118      C3122   1.510       .  S
C3119      C3124   1.406       .  A
C3119      C3128   1.403       .  A
C3120      H3136   1.110       .  S
C3120      H3137   1.110       .  S
C3120      H3138   1.111       .  S
C3122      H3133   1.110       .  S
C3122      H3134   1.111       .  S
C3122      H3135   1.096       .  S
C3124      C3129   1.508       .  S
C3124      C3125   1.401       .  A
C3125      C3126   1.414       .  A
C3125      H3130   1.083       .  S
C3126      C3127   1.420       .  A
C3127      C3131   1.506       .  S
C3127      C3128   1.410       .  A
C3128      H3132   1.084       .  S
C3129      H3139   1.111       .  S
C3129      H3140   1.110       .  S
C3129      H3141   1.110       .  S
C3131      H3142   1.111       .  S
C3131      H3143   1.110       .  S
C3131      H3144   1.111       .  S
C3145      C3146   1.393       .  A
C3145      C3150   1.409       .  A
C3145      H3155   1.086       .  S
C3146      C4323   1.404       .  A
C3146      C3151   1.487       .  S
C3147      C3152   1.507       .  S
C3147      C4322   1.403       .  A
C3147      C3148   1.403       .  A
C3148      C4325   1.423       .  A
C3148      H3153   1.083       .  S
C3149      C3538   1.587       .  S
C3149      C4324   1.424       .  A
C3149      C3150   1.448       .  A
C3150      C3154   1.515       .  S
C3151      C4332   1.414       .  A
C3151      C3160   1.395       .  A
C3152      H4344   1.110       .  S
C3152      H3169   1.110       .  S
C3152      H3170   1.111       .  S
C3154      H4341   1.112       .  S
C3154      H3166   1.096       .  S
C3154      H3167   1.110       .  S
C3156      C3161   1.504       .  S
C3156      C4327   1.413       .  A
C3156      C3157   1.412       .  A
C3157      C4334   1.405   1_545  A
C3157      H3162   1.084       .  S
C3158      C4333   1.406       .  A
C3158      C3159   1.424       .  A
C3159      C3163   1.511       .  S
C3159      C3160   1.397       .  A
C3160      H3164   1.085       .  S
C3161      H3171   1.111       .  S
C3161      H3172   1.110       .  S
C3161      H3173   1.110       .  S
C3163      H3174   1.111       .  S
C3163      H3175   1.101       .  S
C3163      H3176   1.111       .  S
H3165      C4330   1.112       .  S
H3168      C4328   1.109       .  S
C3177      C4354   1.394       .  A
C3177      C3182   1.409       .  A
C3177      H3187   1.085       .  S
C3178      C4353   1.394   1_545  A
C3178      C3179   1.403       .  A
C3178      C3183   1.487       .  S
C3179      C3184   1.508       .  S
C3179      C3180   1.404       .  A
C3180      C3181   1.425       .  A
C3180      H3185   1.077       .  S
C3181      C4358   1.443   1_545  A
C3182      C3186   1.504       .  S
C3182      C4357   1.442       .  A
C3183      C3188   1.412       .  A
C3183      C4368   1.401   1_545  A
C3184      H3200   1.110       .  S
C3184      H3201   1.109       .  S
C3184      H3202   1.111       .  S
C3186      H3197   1.110       .  S
C3186      H3198   1.111       .  S
C3186      H3199   1.086       .  S
C3188      C3193   1.506       .  S
C3188      C3189   1.409       .  A
C3189      C3190   1.406       .  A
C3189      H3194   1.084       .  S
C3190      C4367   1.416   1_545  A
C3191      C3195   1.508       .  S
C3191      C4366   1.415       .  A
C3191      C3192   1.403       .  A
C3192      C4359   1.401       .  A
C3192      H3196   1.084       .  S
C3193      H3203   1.111       .  S
C3193      H3204   1.110       .  S
C3193      H3205   1.109       .  S
C3195      H3206   1.111       .  S
C3195      H3207   1.110       .  S
C3195      H3208   1.110       .  S
C3209      C3210   1.398       .  A
C3209      C3214   1.410       .  A
C3209      H3219   1.085       .  S
C3210      C3211   1.405       .  A
C3210      C3215   1.493       .  S
C3211      C3216   1.510       .  S
C3211      C3212   1.403       .  A
C3212      C3213   1.426       .  A
C3212      H3217   1.076       .  S
C3213      C3214   1.441       .  A
C3214      C3218   1.509       .  S
C3215      C3220   1.413       .  A
C3215      C3224   1.397       .  A
C3216      H3232   1.108       .  S
C3216      H3233   1.110       .  S
C3216      H3234   1.111       .  S
C3218      H3229   1.111       .  S
C3218      H3230   1.110       .  S
C3218      H3231   1.096       .  S
C3220      C3225   1.506       .  S
C3220      C3221   1.412       .  A
C3221      C3222   1.409       .  A
C3221      H3226   1.083       .  S
C3222      C3223   1.427       .  A
C3223      C3227   1.511       .  S
C3223      C3224   1.403       .  A
C3224      H3228   1.084       .  S
C3225      H3235   1.111       .  S
C3225      H3236   1.109       .  S
C3225      H3237   1.111       .  S
C3227      H3238   1.109       .  S
C3227      H3239   1.111       .  S
C3227      H3240   1.111       .  S
C3241      C3242   1.401       .  A
C3241      C3246   1.416       .  A
C3241      H3251   1.083       .  S
C3242      C3243   1.407       .  A
C3242      C3247   1.500       .  S
C3243      C3248   1.509       .  S
C3243      C3244   1.405       .  A
C3244      C3245   1.422       .  A
C3244      H3249   1.072       .  S
C3245      C3538   1.585       .  S
C3245      C3246   1.441       .  A
C3246      C3250   1.511       .  S
C3247      C3252   1.414       .  A
C3247      C3256   1.405       .  A
C3248      H3264   1.109       .  S
C3248      H3265   1.110       .  S
C3248      H3266   1.111       .  S
C3250      H3261   1.111       .  S
C3250      H3262   1.108       .  S
C3250      H4439   1.106       .  S
C3252      C3257   1.507       .  S
C3252      C3253   1.407       .  A
C3253      C3254   1.407       .  A
C3253      H3258   1.084       .  S
C3254      C3255   1.420       .  A
C3255      C3259   1.507       .  S
C3255      C3256   1.412       .  A
C3256      H3260   1.084       .  S
C3257      H3267   1.111       .  S
C3257      H3268   1.109       .  S
C3257      H3269   1.110       .  S
C3259      H3270   1.111       .  S
C3259      H3271   1.110       .  S
C3259      H3272   1.109       .  S
H3263      C4426   1.106       .  S
C3273      C3274   1.400       .  A
C3273      C3278   1.401       .  A
C3273      H3283   1.085       .  S
C3274      C3275   1.412       .  A
C3274      C3279   1.481       .  S
C3275      C3280   1.507       .  S
C3275      C3276   1.405       .  A
C3276      C3277   1.403       .  A
C3276      H3281   1.083       .  S
C3277      C3278   1.417       .  A
C3278      C3282   1.508       .  S
C3279      C3284   1.408       .  A
C3279      C3288   1.403       .  A
C3280      H3296   1.110       .  S
C3280      H3297   1.111       .  S
C3280      H3298   1.111       .  S
C3282      H3293   1.110       .  S
C3282      H3294   1.110       .  S
C3282      H3295   1.108       .  S
C3284      C3289   1.507       .  S
C3284      C3285   1.401       .  A
C3285      C3286   1.408       .  A
C3285      H3290   1.083       .  S
C3286      C3287   1.414       .  A
C3287      C3291   1.502       .  S
C3287      C3288   1.403       .  A
C3288      H3292   1.085       .  S
C3289      H3299   1.111       .  S
C3289      H3300   1.109       .  S
C3289      H3301   1.110       .  S
C3291      H3302   1.111       .  S
C3291      H3303   1.102       .  S
C3291      H3304   1.110       .  S
C3305      C3306   1.401       .  A
C3305      C3310   1.399       .  A
C3305      H3315   1.084       .  S
C3306      C3307   1.408       .  A
C3306      C3311   1.471       .  S
C3307      C3312   1.506       .  S
C3307      C3308   1.399       .  A
C3308      C3309   1.402       .  A
C3308      H3313   1.084       .  S
C3309      C3310   1.412       .  A
C3310      C3314   1.507       .  S
C3311      C3316   1.408       .  A
C3311      C3320   1.396       .  A
C3312      H3328   1.110       .  S
C3312      H3329   1.110       .  S
C3312      H3330   1.111       .  S
C3314      H3325   1.110       .  S
C3314      H3326   1.110       .  S
C3314      H3327   1.107       .  S
C3316      C3321   1.507       .  S
C3316      C3317   1.401       .  A
C3317      C3318   1.407       .  A
C3317      H3322   1.084       .  S
C3318      C3319   1.421       .  A
C3319      C3323   1.506       .  S
C3319      C3320   1.400       .  A
C3320      H3324   1.085       .  S
C3321      H3331   1.111       .  S
C3321      H3332   1.110       .  S
C3321      H3333   1.110       .  S
C3323      H3334   1.111       .  S
C3323      H3335   1.108       .  S
C3323      H3336   1.107       .  S
C3337      C3338   1.392       .  A
C3337      C3342   1.394       .  A
C3337      H3347   1.085       .  S
C3338      C3339   1.411       .  A
C3338      C3343   1.470       .  S
C3339      C3344   1.504       .  S
C3339      C3340   1.404       .  A
C3340      C3341   1.399       .  A
C3340      H3345   1.084       .  S
C3341      C3342   1.423       .  A
C3342      C3346   1.509       .  S
C3343      C3348   1.408       .  A
C3343      C3352   1.401       .  A
C3344      H3360   1.111       .  S
C3344      H3361   1.110       .  S
C3344      H3362   1.111       .  S
C3346      H3357   1.108       .  S
C3346      H3358   1.111       .  S
C3346      H3359   1.109       .  S
C3348      C3353   1.507       .  S
C3348      C3349   1.398       .  A
C3349      C3350   1.400       .  A
C3349      H3354   1.084       .  S
C3350      C3351   1.414       .  A
C3351      C3355   1.507       .  S
C3351      C3352   1.401       .  A
C3352      H3356   1.084       .  S
C3353      H3363   1.110       .  S
C3353      H3364   1.110       .  S
C3353      H3365   1.110       .  S
C3355      H3366   1.110       .  S
C3355      H3367   1.107       .  S
C3355      H3368   1.110       .  S
C3369      C3370   1.403       .  A
C3369      C3374   1.404       .  A
C3369      H3379   1.085       .  S
C3370      C3371   1.415       .  A
C3370      C3375   1.495       .  S
C3371      C3376   1.506       .  S
C3371      C3372   1.409       .  A
C3372      C3373   1.406       .  A
C3372      H3377   1.084       .  S
C3373      C3374   1.417       .  A
C3374      C3378   1.509       .  S
C3375      C3380   1.414       .  A
C3375      C3384   1.400       .  A
C3376      H3392   1.109       .  S
C3376      H3393   1.110       .  S
C3376      H3394   1.111       .  S
C3378      H3389   1.110       .  S
C3378      H3390   1.110       .  S
C3378      H3391   1.107       .  S
C3380      C3385   1.507       .  S
C3380      C3381   1.412       .  A
C3381      C3382   1.410       .  A
C3381      H3386   1.084       .  S
C3382      C3383   1.424       .  A
C3383      C3387   1.509       .  S
C3383      C3384   1.407       .  A
C3384      H3388   1.084       .  S
C3385      H3395   1.111       .  S
C3385      H3396   1.109       .  S
C3385      H3397   1.111       .  S
C3387      H3398   1.111       .  S
C3387      H3399   1.109       .  S
C3387      H3400   1.110       .  S
C3401      C4578   1.396   1_565  A
C3401      C3406   1.399       .  A
C3401      H3411   1.085       .  S
C3402      C4577   1.395       .  A
C3402      C3403   1.414       .  A
C3402      C3407   1.482       .  S
C3403      C3408   1.506       .  S
C3403      C3404   1.411       .  A
C3404      C3405   1.404       .  A
C3404      H3409   1.084       .  S
C3405      C4582   1.422       .  A
C3406      C3410   1.511       .  S
C3406      C4581   1.422       .  A
C3407      C3412   1.399       .  A
C3407      C4592   1.395       .  A
C3408      H3424   1.110       .  S
C3408      H3425   1.108       .  S
C3408      H3426   1.111       .  S
C3410      H3421   1.107       .  S
C3410      H3422   1.111       .  S
C3410      H3423   1.109       .  S
C3412      C3417   1.511       .  S
C3412      C3413   1.399       .  A
C3413      C3414   1.431       .  A
C3413      H3418   1.073       .  S
C3414      C3529   1.600       .  S
C3414      C4591   1.443       .  A
C3415      C3419   1.506       .  S
C3415      C4590   1.442       .  A
C3415      C3416   1.408       .  A
C3416      C4583   1.394       .  A
C3416      H3420   1.085       .  S
C3417      H3427   1.111       .  S
C3417      H3428   1.110       .  S
C3417      H3429   1.108       .  S
C3419      H3430   1.111       .  S
C3419      H3431   1.089       .  S
C3419      H3432   1.111       .  S
C3433      C4610   1.394       .  A
C3433      C3438   1.407       .  A
C3433      H3443   1.084       .  S
C3434      C4609   1.393       .  A
C3434      C3435   1.403       .  A
C3434      C3439   1.482       .  S
C3435      C3440   1.506       .  S
C3435      C3436   1.405       .  A
C3436      C3437   1.421       .  A
C3436      H3441   1.076       .  S
C3437      C4614   1.442       .  A
C3438      C3442   1.515       .  S
C3438      C4613   1.444       .  A
C3439      C3444   1.411   1_565  A
C3439      C4624   1.399       .  A
C3440      H3456   1.110       .  S
C3440      H3457   1.110   1_565  S
C3440      H3458   1.111       .  S
C3442      H3453   1.111       .  S
C3442      H3454   1.107       .  S
C3442      H3455   1.108       .  S
C3444      C3449   1.506       .  S
C3444      C3445   1.404       .  A
C3445      C3446   1.405   1_545  A
C3445      H3450   1.084       .  S
C3446      C4623   1.422       .  A
C3447      C3451   1.508       .  S
C3447      C4622   1.420       .  A
C3447      C3448   1.407       .  A
C3448      C4615   1.401       .  A
C3448      H3452   1.084       .  S
C3449      H3459   1.111       .  S
C3449      H3460   1.109       .  S
C3449      H3461   1.110       .  S
C3451      H3462   1.110       .  S
C3451      H3463   1.107       .  S
C3451      H3464   1.111       .  S
C3465      C3466   1.403       .  A
C3465      C3470   1.408       .  A
C3465      H3475   1.085       .  S
C3466      C3467   1.405       .  A
C3466      C3471   1.482       .  S
C3467      C3472   1.511       .  S
C3467      C3468   1.399       .  A
C3468      C3469   1.415       .  A
C3468      H3473   1.084       .  S
C3469      C3470   1.426       .  A
C3470      C3474   1.509       .  S
C3471      C3476   1.401       .  A
C3471      C3480   1.388       .  A
C3472      H3488   1.110       .  S
C3472      H3489   1.106       .  S
C3472      H3490   1.111       .  S
C3474      H3485   1.110       .  S
C3474      H3486   1.110       .  S
C3474      H3487   1.099       .  S
C3476      C3481   1.509       .  S
C3476      C3477   1.402       .  A
C3477      C3478   1.426       .  A
C3477      H3482   1.082       .  S
C3478      C3479   1.455       .  A
C3479      C3483   1.517       .  S
C3479      C3480   1.406       .  A
C3480      H3484   1.085       .  S
C3481      H3491   1.111       .  S
C3481      H3492   1.110       .  S
C3481      H3493   1.106       .  S
C3483      H3494   1.102       .  S
C3483      H3495   1.103       .  S
C3483      H3496   1.111       .  S
C3497      C3498   1.392       .  A
C3497      C3502   1.401       .  A
C3497      H3507   1.086       .  S
C3498      C3499   1.404       .  A
C3498      C3503   1.484       .  S
C3499      C3504   1.506       .  S
C3499      C3500   1.407       .  A
C3500      C3501   1.424       .  A
C3500      H3505   1.077       .  S
C3501      C3529   1.580       .  S
C3501      C3502   1.443       .  A
C3502      C3506   1.512       .  S
C3503      C3508   1.409       .  A
C3503      C3512   1.398       .  A
C3504      H3520   1.110       .  S
C3504      H3521   1.110       .  S
C3504      H3522   1.111       .  S
C3506      H3517   1.111       .  S
C3506      H3518   1.110       .  S
C3506      H3519   1.098       .  S
C3508      C3513   1.506       .  S
C3508      C3509   1.406       .  A
C3509      C3510   1.409       .  A
C3509      H3514   1.084       .  S
C3510      C3511   1.423       .  A
C3511      C3515   1.508       .  S
C3511      C3512   1.405       .  A
C3512      H3516   1.085       .  S
C3513      H3523   1.111       .  S
C3513      H3524   1.110       .  S
C3513      H3525   1.110       .  S
C3515      H3526   1.109       .  S
C3515      H3527   1.109       .  S
C3515      H3528   1.111       .  S
C3529      C4613   1.578       .  S
C3529      C4654   1.591       .  S
C3530      C3531   1.413   1_554  A
C3530      C3535   1.401       .  A
C3530      C4485   1.467       .  S
C3531      C3532   1.402       .  A
C3531      C4549   1.497       .  S
C3532      H3537   1.085       .  S
C3533      C3534   1.409   1_556  A
C3533      C4526   1.466       .  S
C3534      C4453   1.488       .  S
C3535      H3536   1.085       .  S
C3538      C4357   1.600       .  S
C3538      C4389   1.591       .  S
C3539      C4238   1.590       .  S
C3539      C4293   1.586       .  S
C3540      C3541   1.413   1_554  A
C3540      C4110   1.472       .  S
C3541      C4174   1.482       .  S
C3542      C3543   1.399       .  A
C3542      H3547   1.085       .  S
C3543      C3544   1.408   1_556  A
C3543      C4133   1.482       .  S
C3544      C3545   1.396       .  A
C3544      C4078   1.470       .  S
C3545      H3546   1.085       .  S
O3548      C3556   1.266       .  A
O3548     Co3568   1.990       .  S
O3549      C3557   1.252       .  A
O3549     Co3569   1.947       .  S
O3550      C3558   1.268       .  A
O3550     Co3570   2.030       .  S
O3551      C3559   1.281       .  A
O3551     Co3571   2.052       .  S
O3552      C3558   1.255       .  A
O3552     Co3569   1.960       .  S
O3553      C3559   1.260       .  A
O3553     Co3568   1.948       .  S
O3554      C3557   1.274       .  A
O3554     Co3571   2.048       .  S
O3555      C3556   1.272       .  A
O3555     Co3570   2.034       .  S
C3556      C4558   1.506       .  S
C3557      C4398   1.497       .  S
C3558      C4142   1.477       .  S
C3559      C4302   1.499       .  S
O3560      C3573   1.268       .  A
O3560     Co3568   2.020       .  S
O3561      C3574   1.281       .  A
O3561     Co3569   2.079       .  S
O3562      C3575   1.241       .  A
O3562     Co3570   1.902       .  S
O3563      C3576   1.263       .  A
O3563     Co3571   1.988       .  S
O3564      C3576   1.274       .  A
O3564     Co3569   2.040       .  S
O3565      C3575   1.281       .  A
O3565     Co3568   2.080       .  S
O3566      C3573   1.259       .  A
O3566     Co3571   1.980       .  S
O3567      C3574   1.241       .  A
O3567     Co3570   1.895       .  S
Co3568     O3572   2.110       .  S
Co3569     O3572   2.092       .  S
Co3570     O3572   1.952       .  S
Co3571     O3572   2.072       .  S
C3573      C4430   1.492       .  S
C3574      C4517   1.464       .  S
C3575      C4165   1.483       .  S
C3576      C4270   1.505       .  S
O3577      C3585   1.265       .  A
O3577     Co3597   1.969       .  S
O3578      C3586   1.255       .  A
O3578     Co3598   1.977       .  S
O3579      C3587   1.273       .  A
O3579     Co3599   2.040       .  S
O3580      C3588   1.293       .  A
O3580     Co3600   2.096       .  S
O3581      C3587   1.258       .  A
O3581     Co3598   1.954       .  S
O3582      C3588   1.267       .  A
O3582     Co3597   1.895       .  S
O3583      C3586   1.252       .  A
O3583     Co3600   1.984       .  S
O3584      C3585   1.280       .  A
O3584     Co3599   2.040       .  S
C3585      C4046   1.494       .  S
C3586      C4069   1.482       .  S
C3587      C4645   1.498       .  S
C3588      C4494   1.483       .  S
O3589      C3602   1.298       .  A
O3589     Co3597   2.120       .  S
O3590      C3603   1.273       .  A
O3590     Co3598   2.024       .  S
O3591      C3604   1.257       .  A
O3591     Co3599   1.978       .  S
O3592      C3605   1.266       .  A
O3592     Co3600   1.961       .  S
O3593      C3605   1.282       .  A
O3593     Co3598   2.042       .  S
O3594      C3604   1.264       .  A
O3594     Co3597   2.007       .  S
O3595      C3602   1.256       .  A
O3595     Co3600   1.865       .  S
O3596      C3603   1.261       .  A
O3596     Co3599   1.968       .  S
Co3597     O3601   2.023       .  S
Co3598     O3601   2.029       .  S
Co3599     O3601   2.034       .  S
Co3600     O3601   1.991       .  S
C3602      C4101   1.485       .  S
C3603      C4014   1.496       .  S
C3604      C4686   1.494       .  S
C3605      C4462   1.483       .  S
O3606      C3614   1.262       .  A
O3606     Co3626   1.999       .  S
O3607      C3615   1.275   1_655  A
O3607     Co3627   2.032       .  S
O3610      C3616   1.276       .  A
O3610     Co3627   2.036       .  S
O3611      C3617   1.301       .  A
O3611     Co3626   2.126       .  S
C3614      C4366   1.481       .  S
C3615      C3982   1.488       .  S
C3616      C4229   1.491       .  S
C3617      C3877   1.484       .  S
O3618      C3631   1.264       .  A
O3618     Co3626   1.904       .  S
O3619      C3632   1.251   1_545  A
O3619     Co3627   1.952   1_545  S
O3620      C3633   1.278       .  A
O3620     Co3628   2.032       .  S
O3622      C3634   1.255       .  A
O3622     Co3627   1.969   1_545  S
O3623      C3633   1.268       .  A
O3623     Co3626   1.975       .  S
O3624      C3631   1.289       .  A
O3624     Co3629   2.091       .  S
Co3626     O3630   2.018       .  S
Co3628     O3630   2.056       .  S
Co3629     O3630   2.005       .  S
C3631      C3950   1.471       .  S
C3632      C4334   1.482       .  S
C3633      C4206   1.481       .  S
C3634      C3909   1.483       .  S
O3635      C3643   1.263       .  A
O3635     Co3655   1.964       .  S
O3636      C3644   1.254   1_545  A
O3636     Co3656   1.971   1_545  S
O3637      C3645   1.275       .  A
O3638      C3646   1.295       .  A
O3639      C3645   1.253       .  A
O3639     Co3656   1.947       .  S
O3640      C3646   1.265       .  A
O3640     Co3655   1.899       .  S
O3641      C3644   1.255       .  A
O3642      C3643   1.280       .  A
C3643      C3717   1.494       .  S
C3644      C3845   1.484   1_565  S
C3645      C4581   1.480       .  S
C3646      C3758   1.490       .  S
O3647      C3660   1.298       .  A
O3647     Co3655   2.119       .  S
O3648      C3661   1.273       .  A
O3648     Co3656   2.029       .  S
O3649     Co3657   1.976       .  S
O3650     Co3658   1.956       .  S
O3651      C3663   1.279   1_655  A
O3651     Co3656   2.035       .  S
O3652      C3662   1.266       .  A
O3652     Co3655   2.008       .  S
O3653     Co3658   1.872       .  S
O3654     Co3657   1.980       .  S
Co3657     O3659   2.043       .  S
Co3658     O3659   1.996       .  S
C3660      C3822   1.478       .  S
C3661      C3694   1.494       .  S
C3662      C4622   1.485       .  S
C3663      C3790   1.482       .  S
C3664      C3665   1.420       .  A
C3664      C3669   1.405       .  A
C3664      C3781   1.485       .  S
C3665      C3666   1.406       .  A
C3665      C3973   1.492       .  S
C3666      C3667   1.401       .  A
C3666      H3671   1.085       .  S
C3667      C3668   1.406       .  A
C3667      C3941   1.477       .  S
C3668      C3669   1.399       .  A
C3668      C3749   1.483       .  S
C3669      H3670   1.085       .  S
C3672      C3673   1.403       .  A
C3672      C3677   1.397       .  A
C3672      C3918   1.476       .  S
C3673      C3674   1.397       .  A
C3673      C3854   1.471       .  S
C3674      C3675   1.402       .  A
C3674      H3679   1.085       .  S
C3675      C3676   1.420       .  A
C3675      C3813   1.483       .  S
C3676      C3677   1.406       .  A
C3676      C3886   1.484       .  S
C3677      H3678   1.085       .  S
C3680      C3726   1.601       .  S
C3680      C4005   1.582       .  S
C3681      C3686   1.411       .  A
C3681      H3691   1.085       .  S
C3682      C3683   1.405       .  A
C3682      C3687   1.498       .  S
C3683      C3688   1.506       .  S
C3683      C3684   1.409       .  A
C3684      C3685   1.425       .  A
C3684      H3689   1.083       .  S
C3686      C3690   1.517       .  S
C3687      C3696   1.402       .  A
C3688      H3704   1.109       .  S
C3688      H3705   1.110       .  S
C3688      H3706   1.111       .  S
C3690      H3701   1.111       .  S
C3690      H3702   1.104       .  S
C3690      H3703   1.103       .  S
C3692      C3697   1.507       .  S
C3692      C3693   1.411       .  A
C3693      H3698   1.084       .  S
C3694      C3695   1.423       .  A
C3695      C3699   1.508       .  S
C3695      C3696   1.408       .  A
C3696      H3700   1.085       .  S
C3697      H3707   1.111       .  S
C3697      H3708   1.109       .  S
C3697      H3709   1.110       .  S
C3699      H3710   1.111       .  S
C3699      H3711   1.101       .  S
C3699      H3712   1.110       .  S
C3713      C3718   1.407       .  A
C3713      H3723   1.084       .  S
C3714      C3715   1.412       .  A
C3714      C3719   1.490       .  S
C3715      C3720   1.507       .  S
C3715      C3716   1.406       .  A
C3716      C3717   1.408       .  A
C3716      H3721   1.084       .  S
C3718      C3722   1.509       .  S
C3719      C3728   1.396       .  A
C3720      H3736   1.110       .  S
C3720      H3737   1.111       .  S
C3720      H3738   1.111       .  S
C3722      H3733   1.111       .  S
C3722      H3734   1.109       .  S
C3722      H3735   1.111       .  S
C3724      C3729   1.508       .  S
C3724      C3725   1.404       .  A
C3725      H3730   1.076       .  S
C3726      C3727   1.442       .  A
C3727      C3731   1.506       .  S
C3727      C3728   1.409       .  A
C3728      H3732   1.085       .  S
C3729      H3739   1.111       .  S
C3729      H3740   1.109       .  S
C3729      H3741   1.110       .  S
C3731      H3742   1.110       .  S
C3731      H3743   1.087       .  S
C3731      H3744   1.111       .  S
C3745      C3750   1.402       .  A
C3745      H3755   1.084       .  S
C3746      C3747   1.412       .  A
C3746      C3751   1.482       .  S
C3747      C3752   1.506       .  S
C3747      C3748   1.405       .  A
C3748      H3753   1.084       .  S
C3749      C3750   1.416   1_455  A
C3750      C3754   1.508       .  S
C3751      C3760   1.401       .  A
C3752      H3768   1.110       .  S
C3752      H3769   1.110       .  S
C3752      H3770   1.111       .  S
C3754      H3765   1.110       .  S
C3754      H3766   1.110       .  S
C3754      H3767   1.108       .  S
C3756      C3761   1.506   1_455  S
C3756      C3757   1.403       .  A
C3757      H3762   1.083       .  S
C3758      C3759   1.420       .  A
C3759      C3763   1.508       .  S
C3759      C3760   1.406       .  A
C3760      H3764   1.084       .  S
C3761      H3771   1.111       .  S
C3761      H3772   1.110       .  S
C3763      H3774   1.111       .  S
C3763      H3775   1.111       .  S
C3763      H3776   1.109       .  S
C3777      C3782   1.400       .  A
C3777      H3787   1.085       .  S
C3778      C3779   1.412   1_455  A
C3778      C3783   1.480       .  S
C3779      C3784   1.506       .  S
C3779      C3780   1.405   1_655  A
C3780      C3781   1.404       .  A
C3780      H3785   1.084   1_455  S
C3782      C3786   1.512       .  S
C3783      C3792   1.404   1_455  A
C3784      H3800   1.110       .  S
C3784      H3801   1.111       .  S
C3784      H3802   1.111       .  S
C3786      H3797   1.111       .  S
C3786      H3798   1.107       .  S
C3786      H3799   1.107       .  S
C3788      C3793   1.508       .  S
C3788      C3789   1.400       .  A
C3789      H3794   1.084       .  S
C3790      C3791   1.415   1_455  A
C3791      C3795   1.507       .  S
C3791      C3792   1.406       .  A
C3792      H3796   1.084       .  S
C3793      H3803   1.111       .  S
C3793      H3804   1.109       .  S
C3793      H3805   1.110       .  S
C3795      H3806   1.110       .  S
C3795      H3807   1.109       .  S
C3795      H3808   1.111       .  S
C3809      C3814   1.405       .  A
C3809      H3819   1.084       .  S
C3810      C3811   1.409       .  A
C3810      C3815   1.472       .  S
C3811      C3816   1.507       .  S
C3811      C3812   1.398       .  A
C3812      H3817   1.084       .  S
C3813      C3814   1.415   1_545  A
C3814      C3818   1.506       .  S
C3815      C3820   1.411       .  A
C3816      H3832   1.110       .  S
C3816      H3833   1.110       .  S
C3816      H3834   1.111       .  S
C3818      H3829   1.110       .  S
C3818      H3830   1.110       .  S
C3818      H3831   1.107       .  S
C3820      C3825   1.505       .  S
C3820      C3821   1.407       .  A
C3821      C3822   1.405       .  A
C3821      H3826   1.084       .  S
C3823      C3827   1.510       .  S
C3823      C3824   1.397       .  A
C3824      H3828   1.085       .  S
C3825      H3835   1.111       .  S
C3825      H3836   1.110       .  S
C3825      H3837   1.110       .  S
C3827      H3838   1.111       .  S
C3827      H3839   1.109   1_545  S
C3827      H3840   1.108       .  S
C3841      C3846   1.404       .  A
C3841      H3851   1.085       .  S
C3842      C3843   1.407       .  A
C3842      C3847   1.473       .  S
C3843      C3848   1.509       .  S
C3843      C3844   1.396       .  A
C3844      C3845   1.407       .  A
C3844      H3849   1.084       .  S
C3846      C3850   1.509       .  S
C3847      C3852   1.411   1_545  A
C3848      H3864   1.110       .  S
C3848      H3865   1.110       .  S
C3848      H3866   1.111       .  S
C3850      H3861   1.110       .  S
C3850      H3862   1.111       .  S
C3850      H3863   1.110       .  S
C3852      C3857   1.507       .  S
C3852      C3853   1.398       .  A
C3853      C3854   1.400   1_565  A
C3853      H3858   1.084       .  S
C3855      C3859   1.507       .  S
C3855      C3856   1.400       .  A
C3856      H3860   1.084       .  S
C3857      H3867   1.111       .  S
C3857      H3868   1.110       .  S
C3857      H3869   1.110       .  S
C3859      H3870   1.110       .  S
C3859      H3871   1.108       .  S
C3859      H3872   1.110       .  S
C3873      C3874   1.398       .  A
C3873      C3878   1.402       .  A
C3873      H3883   1.084       .  S
C3874      C3879   1.484       .  S
C3875      C3880   1.506       .  S
C3875      C3876   1.404       .  A
C3876      H3881   1.084       .  S
C3877      C3878   1.423       .  A
C3878      C3882   1.511       .  S
C3879      C3888   1.403       .  A
C3880      H3896   1.110       .  S
C3880      H3897   1.110       .  S
C3880      H3898   1.111       .  S
C3882      H3893   1.110       .  S
C3882      H3894   1.111       .  S
C3882      H3895   1.109       .  S
C3884      C3889   1.507       .  S
C3884      C3885   1.401       .  A
C3885      C3886   1.406   1_565  A
C3885      H3890   1.084       .  S
C3887      C3891   1.507       .  S
C3887      C3888   1.404       .  A
C3888      H3892   1.085       .  S
C3889      H3899   1.111       .  S
C3889      H3900   1.109       .  S
C3889      H3901   1.111       .  S
C3891      H3902   1.110       .  S
C3891      H3903   1.107       .  S
C3891      H3904   1.110       .  S
C3905      C3906   1.401       .  A
C3905      C3910   1.406       .  A
C3905      H3915   1.084       .  S
C3906      C3911   1.475       .  S
C3907      C3912   1.508       .  S
C3907      C3908   1.397       .  A
C3908      H3913   1.084       .  S
C3909      C3910   1.418       .  A
C3910      C3914   1.506       .  S
C3911      C3920   1.400   1_545  A
C3912      H3928   1.110       .  S
C3912      H3929   1.110       .  S
C3912      H3930   1.111       .  S
C3914      H3925   1.111       .  S
C3914      H3926   1.109   1_545  S
C3914      H3927   1.109       .  S
C3916      C3921   1.506       .  S
C3916      C3917   1.401       .  A
C3917      H3922   1.084       .  S
C3918      C3919   1.413   1_545  A
C3919      C3923   1.508       .  S
C3919      C3920   1.399       .  A
C3920      H3924   1.085       .  S
C3921      H3931   1.111       .  S
C3921      H3932   1.110       .  S
C3921      H3933   1.110       .  S
C3923      H3934   1.110       .  S
C3923      H3935   1.108       .  S
C3923      H3936   1.110       .  S
C3937      C3938   1.400       .  A
C3937      C3942   1.400       .  A
C3937      H3947   1.085       .  S
C3938      C3943   1.477       .  S
C3939      C3944   1.506       .  S
C3939      C3940   1.403   1_655  A
C3940      C3941   1.403       .  A
C3940      H3945   1.084   1_455  S
C3942      C3946   1.507       .  S
C3943      C3952   1.403       .  A
C3944      H3960   1.110       .  S
C3944      H3961   1.109       .  S
C3944      H3962   1.111       .  S
C3946      H3957   1.110       .  S
C3946      H3958   1.110       .  S
C3946      H3959   1.108       .  S
C3948      C3953   1.507       .  S
C3948      C3949   1.401       .  A
C3949      H3954   1.085       .  S
C3950      C3951   1.411       .  A
C3951      C3955   1.505       .  S
C3951      C3952   1.404       .  A
C3952      H3956   1.084       .  S
C3953      H3963   1.111       .  S
C3953      H3964   1.110       .  S
C3953      H3965   1.109       .  S
C3955      H3966   1.107       .  S
C3955      H3967   1.111       .  S
C3955      H3968   1.111       .  S
C3969      C3970   1.405       .  A
C3969      C3974   1.407       .  A
C3970      C3971   1.412   1_455  A
C3970      C3975   1.490       .  S
C3971      C3976   1.508       .  S
C3971      C3972   1.402       .  A
C3972      C3973   1.406   1_655  A
C3972      H3977   1.084       .  S
C3973      C3974   1.416       .  A
C3975      C3984   1.400   1_455  A
C3976      H3992   1.108       .  S
C3976      H3994   1.111       .  S
C3978      H3989   1.103       .  S
C3978      H3991   1.111       .  S
C3980      C3985   1.507       .  S
C3980      C3981   1.407       .  A
C3981      H3986   1.084       .  S
C3982      C3983   1.422   1_455  A
C3983      C3987   1.508       .  S
C3983      C3984   1.404       .  A
C3984      H3988   1.084       .  S
C3985      H3995   1.111       .  S
C3985      H3996   1.109       .  S
C3985      H3997   1.110       .  S
C3987      H3998   1.111       .  S
C3987      H3999   1.105       .  S
C3987      H4000   1.110       .  S
C4001      C4002   1.395       .  A
C4001      C4006   1.410       .  A
C4001      H4011   1.084       .  S
C4002      C4003   1.403       .  A
C4002      C4007   1.484       .  S
C4003      C4008   1.510       .  S
C4003      C4004   1.402       .  A
C4004      C4005   1.421       .  A
C4004      H4009   1.072       .  S
C4005      C4006   1.443       .  A
C4006      C4010   1.513       .  S
C4007      C4012   1.409       .  A
C4007      C4016   1.399       .  A
C4008      H4024   1.110       .  S
C4008      H4025   1.107       .  S
C4008      H4026   1.111       .  S
C4010      H4021   1.107       .  S
C4010      H4022   1.111       .  S
C4010      H4023   1.107       .  S
C4012      C4017   1.507       .  S
C4012      C4013   1.406       .  A
C4013      C4014   1.410       .  A
C4013      H4018   1.083       .  S
C4014      C4015   1.423       .  A
C4015      C4019   1.508       .  S
C4015      C4016   1.404       .  A
C4016      H4020   1.085       .  S
C4017      H4027   1.111       .  S
C4017      H4028   1.110       .  S
C4017      H4029   1.107       .  S
C4019      H4030   1.111       .  S
C4019      H4031   1.109       .  S
C4019      H4032   1.110       .  S
C4033      C4034   1.394       .  A
C4033      C4038   1.407       .  A
C4033      H4043   1.085       .  S
C4034      C4035   1.404       .  A
C4034      C4039   1.488       .  S
C4035      C4040   1.508       .  S
C4035      C4036   1.405       .  A
C4036      C4037   1.424       .  A
C4036      H4041   1.077       .  S
C4037      C4038   1.444       .  A
C4038      C4042   1.512       .  S
C4039      C4044   1.410       .  A
C4039      C4048   1.401       .  A
C4040      H4056   1.110       .  S
C4040      H4057   1.110       .  S
C4040      H4058   1.111       .  S
C4042      H4053   1.110       .  S
C4042      H4054   1.111       .  S
C4042      H4055   1.097       .  S
C4044      C4049   1.506       .  S
C4044      C4045   1.407       .  A
C4045      C4046   1.410       .  A
C4045      H4050   1.084       .  S
C4046      C4047   1.416       .  A
C4047      C4051   1.499       .  S
C4047      C4048   1.406       .  A
C4048      H4052   1.084       .  S
C4049      H4059   1.111       .  S
C4049      H4060   1.110       .  S
C4049      H4061   1.110       .  S
C4051      H4062   1.111       .  S
C4051      H4063   1.109       .  S
C4051      H4064   1.109       .  S
C4065      C4066   1.397       .  A
C4065      C4070   1.401       .  A
C4065      H4075   1.084       .  S
C4066      C4067   1.407       .  A
C4066      C4071   1.470       .  S
C4067      C4072   1.508       .  S
C4067      C4068   1.398       .  A
C4068      C4069   1.406       .  A
C4068      H4073   1.083       .  S
C4069      C4070   1.424       .  A
C4070      C4074   1.510       .  S
C4071      C4076   1.410       .  A
C4071      C4080   1.400       .  A
C4072      H4088   1.110       .  S
C4072      H4089   1.111       .  S
C4072      H4090   1.111       .  S
C4074      H4085   1.110       .  S
C4074      H4086   1.111       .  S
C4074      H4087   1.110       .  S
C4076      C4081   1.507       .  S
C4076      C4077   1.397       .  A
C4077      C4078   1.400       .  A
C4077      H4082   1.085       .  S
C4078      C4079   1.413       .  A
C4079      C4083   1.506       .  S
C4079      C4080   1.398       .  A
C4080      H4084   1.085       .  S
C4081      H4091   1.111       .  S
C4081      H4092   1.110       .  S
C4081      H4093   1.110       .  S
C4083      H4094   1.110       .  S
C4083      H4095   1.107       .  S
C4083      H4096   1.110       .  S
C4097      C4098   1.404       .  A
C4097      C4102   1.408       .  A
C4097      H4107   1.084       .  S
C4098      C4099   1.404       .  A
C4098      C4103   1.473       .  S
C4099      C4104   1.510       .  S
C4099      C4100   1.394       .  A
C4100      C4101   1.411       .  A
C4100      H4105   1.084       .  S
C4101      C4102   1.416       .  A
C4102      C4106   1.506       .  S
C4103      C4108   1.411       .  A
C4103      C4112   1.398       .  A
C4104      H4120   1.110       .  S
C4104      H4121   1.109       .  S
C4104      H4122   1.111       .  S
C4106      H4117   1.111       .  S
C4106      H4118   1.110       .  S
C4106      H4119   1.109       .  S
C4108      C4113   1.506       .  S
C4108      C4109   1.403       .  A
C4109      C4110   1.402       .  A
C4109      H4114   1.084       .  S
C4110      C4111   1.414       .  A
C4111      C4115   1.508       .  S
C4111      C4112   1.397       .  A
C4112      H4116   1.084       .  S
C4113      H4123   1.111       .  S
C4113      H4124   1.110       .  S
C4113      H4125   1.110       .  S
C4115      H4126   1.110       .  S
C4115      H4127   1.108       .  S
C4115      H4128   1.111       .  S
C4129      C4130   1.400       .  A
C4129      C4134   1.401       .  A
C4129      H4139   1.085       .  S
C4130      C4131   1.411       .  A
C4130      C4135   1.478       .  S
C4131      C4136   1.506       .  S
C4131      C4132   1.402       .  A
C4132      C4133   1.404       .  A
C4132      H4137   1.084       .  S
C4133      C4134   1.417       .  A
C4134      C4138   1.508       .  S
C4135      C4140   1.412       .  A
C4135      C4144   1.396       .  A
C4136      H4152   1.110       .  S
C4136      H4153   1.109       .  S
C4136      H4154   1.111       .  S
C4138      H4149   1.110       .  S
C4138      H4150   1.110       .  S
C4138      H4151   1.107       .  S
C4140      C4145   1.505       .  S
C4140      C4141   1.408       .  A
C4141      C4142   1.403       .  A
C4141      H4146   1.084       .  S
C4142      C4143   1.421       .  A
C4143      C4147   1.510       .  S
C4143      C4144   1.398       .  A
C4144      H4148   1.085       .  S
C4145      H4155   1.111       .  S
C4145      H4156   1.111       .  S
C4145      H4157   1.110       .  S
C4147      H4158   1.109       .  S
C4147      H4159   1.107       .  S
C4147      H4160   1.111       .  S
C4161      C4162   1.406       .  A
C4161      C4166   1.406       .  A
C4161      H4171   1.084       .  S
C4162      C4163   1.404       .  A
C4162      C4167   1.476       .  S
C4163      C4168   1.509       .  S
C4163      C4164   1.396       .  A
C4164      C4165   1.414       .  A
C4164      H4169   1.084       .  S
C4165      C4166   1.409       .  A
C4166      C4170   1.504       .  S
C4167      C4172   1.411       .  A
C4167      C4176   1.399       .  A
C4168      H4184   1.110       .  S
C4168      H4185   1.110       .  S
C4168      H4186   1.111       .  S
C4170      H4181   1.111       .  S
C4170      H4182   1.110       .  S
C4170      H4183   1.109       .  S
C4172      C4177   1.508       .  S
C4172      C4173   1.401       .  A
C4173      C4174   1.402       .  A
C4173      H4178   1.082       .  S
C4174      C4175   1.419       .  A
C4175      C4179   1.508       .  S
C4175      C4176   1.401       .  A
C4176      H4180   1.084       .  S
C4177      H4187   1.111       .  S
C4177      H4188   1.109       .  S
C4177      H4189   1.111       .  S
C4179      H4190   1.110       .  S
C4179      H4191   1.108       .  S
C4179      H4192   1.110       .  S
C4193      C4198   1.411       .  A
C4193      H4203   1.084       .  S
C4194      C4195   1.407       .  A
C4194      C4199   1.494       .  S
C4195      C4200   1.509       .  S
C4195      C4196   1.404       .  A
C4196      C4197   1.421       .  A
C4196      H4201   1.075       .  S
C4198      C4202   1.513       .  S
C4199      C4208   1.402       .  A
C4200      H4216   1.108       .  S
C4200      H4217   1.110       .  S
C4200      H4218   1.111       .  S
C4202      H4213   1.111       .  S
C4202      H4214   1.107       .  S
C4202      H4215   1.105       .  S
C4204      C4209   1.506       .  S
C4204      C4205   1.411       .  A
C4205      H4210   1.084       .  S
C4206      C4207   1.414       .  A
C4207      C4211   1.505       .  S
C4207      C4208   1.403       .  A
C4208      H4212   1.084       .  S
C4209      H4219   1.111       .  S
C4209      H4220   1.109       .  S
C4209      H4221   1.110       .  S
C4211      H4222   1.111       .  S
C4211      H4223   1.105       .  S
C4211      H4224   1.110       .  S
C4225      C4226   1.404       .  A
C4225      C4230   1.411       .  A
C4225      H4235   1.084       .  S
C4226      C4231   1.491       .  S
C4227      C4232   1.508       .  S
C4227      C4228   1.404       .  A
C4228      H4233   1.084       .  S
C4229      C4230   1.420       .  A
C4230      C4234   1.506       .  S
C4231      C4236   1.403       .  A
C4232      H4248   1.110       .  S
C4232      H4249   1.111       .  S
C4232      H4250   1.111       .  S
C4234      H4245   1.110       .  S
C4234      H4246   1.111       .  S
C4234      H4247   1.103       .  S
C4236      C4241   1.508       .  S
C4236      C4237   1.405       .  A
C4237      C4238   1.426       .  A
C4237      H4242   1.075       .  S
C4239      C4243   1.510       .  S
C4239      C4240   1.409       .  A
C4240      H4244   1.085       .  S
C4241      H4251   1.111       .  S
C4241      H4252   1.110       .  S
C4241      H4253   1.110       .  S
C4243      H4254   1.110       .  S
C4243      H4255   1.096       .  S
C4243      H4256   1.111       .  S
C4257      C4258   1.400       .  A
C4257      C4262   1.418       .  A
C4257      H4267   1.084       .  S
C4258      C4259   1.406       .  A
C4258      C4263   1.503       .  S
C4259      C4264   1.509       .  S
C4259      C4260   1.407       .  A
C4260      C4261   1.424       .  A
C4260      H4265   1.074       .  S
C4261      C4262   1.443       .  A
C4262      C4266   1.512       .  S
C4263      C4268   1.415       .  A
C4263      C4272   1.400       .  A
C4264      H4280   1.110       .  S
C4264      H4281   1.108       .  S
C4264      H4282   1.111       .  S
C4266      H4277   1.108       .  S
C4266      H4278   1.110       .  S
C4266      H4279   1.105       .  S
C4268      C4273   1.506       .  S
C4268      C4269   1.417       .  A
C4269      C4270   1.411       .  A
C4269      H4274   1.084       .  S
C4270      C4271   1.425       .  A
C4271      C4275   1.506       .  S
C4271      C4272   1.409       .  A
C4272      H4276   1.085       .  S
C4273      H4283   1.111       .  S
C4273      H4284   1.110       .  S
C4273      H4285   1.108       .  S
C4275      H4286   1.110       .  S
C4275      H4287   1.099       .  S
C4275      H4288   1.111       .  S
C4289      C4290   1.396       .  A
C4289      C4294   1.408       .  A
C4289      H4299   1.085       .  S
C4290      C4291   1.401       .  A
C4290      C4295   1.486       .  S
C4291      C4296   1.509       .  S
C4291      C4292   1.403       .  A
C4292      C4293   1.428       .  A
C4292      H4297   1.076       .  S
C4293      C4294   1.440       .  A
C4294      C4298   1.510       .  S
C4295      C4300   1.406       .  A
C4295      C4304   1.403       .  A
C4296      H4312   1.110       .  S
C4296      H4313   1.110       .  S
C4296      H4314   1.111       .  S
C4298      H4309   1.110       .  S
C4298      H4310   1.111       .  S
C4298      H4311   1.097       .  S
C4300      C4305   1.508       .  S
C4300      C4301   1.402       .  A
C4301      C4302   1.414       .  A
C4301      H4306   1.083       .  S
C4302      C4303   1.421       .  A
C4303      C4307   1.506       .  S
C4303      C4304   1.410       .  A
C4304      H4308   1.084       .  S
C4305      H4315   1.111       .  S
C4305      H4316   1.110       .  S
C4305      H4317   1.110       .  S
C4307      H4318   1.111       .  S
C4307      H4319   1.110       .  S
C4307      H4320   1.111       .  S
C4321      C4322   1.392   1_565  A
C4321      C4326   1.408       .  A
C4321      H4331   1.086       .  S
C4322      C4327   1.484       .  S
C4323      C4328   1.507       .  S
C4323      C4324   1.403       .  A
C4324      H4329   1.083       .  S
C4325      C4326   1.449   1_545  A
C4326      C4330   1.515       .  S
C4327      C4336   1.395   1_545  A
C4328      H4345   1.111       .  S
C4328      H4346   1.111       .  S
C4330      H4342   1.096       .  S
C4330      H4343   1.110       .  S
C4332      C4337   1.505       .  S
C4332      C4333   1.413       .  A
C4333      H4338   1.084       .  S
C4334      C4335   1.420       .  A
C4335      C4339   1.509       .  S
C4335      C4336   1.398       .  A
C4336      H4340   1.085       .  S
C4337      H4347   1.111       .  S
C4337      H4348   1.110       .  S
C4337      H4349   1.111       .  S
C4339      H4350   1.107       .  S
C4339      H4351   1.109       .  S
C4339      H4352   1.111       .  S
C4353      C4358   1.409       .  A
C4353      H4363   1.085       .  S
C4354      C4355   1.402       .  A
C4354      C4359   1.486       .  S
C4355      C4360   1.508       .  S
C4355      C4356   1.403       .  A
C4356      C4357   1.426       .  A
C4356      H4361   1.077       .  S
C4358      C4362   1.504       .  S
C4359      C4364   1.412       .  A
C4360      H4376   1.110       .  S
C4360      H4377   1.109       .  S
C4360      H4378   1.111       .  S
C4362      H4373   1.111       .  S
C4362      H4374   1.111       .  S
C4362      H4375   1.086       .  S
C4364      C4369   1.505       .  S
C4364      C4365   1.409       .  A
C4365      C4366   1.406       .  A
C4365      H4370   1.084       .  S
C4367      C4371   1.508       .  S
C4367      C4368   1.404       .  A
C4368      H4372   1.084       .  S
C4369      H4379   1.111       .  S
C4369      H4380   1.110       .  S
C4369      H4381   1.109       .  S
C4371      H4382   1.111       .  S
C4371      H4383   1.110       .  S
C4371      H4384   1.110       .  S
C4385      C4386   1.398       .  A
C4385      C4390   1.410       .  A
C4385      H4395   1.085       .  S
C4386      C4387   1.405       .  A
C4386      C4391   1.492       .  S
C4387      C4392   1.510       .  S
C4387      C4388   1.402       .  A
C4388      C4389   1.426       .  A
C4388      H4393   1.076       .  S
C4389      C4390   1.441       .  A
C4390      C4394   1.509       .  S
C4391      C4396   1.414       .  A
C4391      C4400   1.398       .  A
C4392      H4408   1.108       .  S
C4392      H4409   1.111       .  S
C4392      H4410   1.111       .  S
C4394      H4405   1.111       .  S
C4394      H4406   1.110       .  S
C4394      H4407   1.096       .  S
C4396      C4401   1.506       .  S
C4396      C4397   1.412       .  A
C4397      C4398   1.409       .  A
C4397      H4402   1.082       .  S
C4398      C4399   1.425       .  A
C4399      C4403   1.511       .  S
C4399      C4400   1.402       .  A
C4400      H4404   1.084       .  S
C4401      H4411   1.111       .  S
C4401      H4412   1.109       .  S
C4401      H4413   1.110       .  S
C4403      H4414   1.109       .  S
C4403      H4415   1.111       .  S
C4403      H4416   1.111       .  S
C4417      C4418   1.399       .  A
C4417      C4422   1.414       .  A
C4417      H4427   1.086       .  S
C4418      C4419   1.405       .  A
C4418      C4423   1.494       .  S
C4419      C4424   1.509       .  S
C4419      C4420   1.403       .  A
C4420      C4421   1.421       .  A
C4420      H4425   1.079       .  S
C4421      C4422   1.441       .  A
C4422      C4426   1.511   1_565  S
C4423      C4428   1.413       .  A
C4423      C4432   1.404       .  A
C4424      H4440   1.109       .  S
C4424      H4441   1.110       .  S
C4424      H4442   1.111       .  S
C4426      H4437   1.111   1_545  S
C4426      H4438   1.108       .  S
C4428      C4433   1.506       .  S
C4428      C4429   1.405       .  A
C4429      C4430   1.406       .  A
C4429      H4434   1.084       .  S
C4430      C4431   1.419       .  A
C4431      C4435   1.507       .  S
C4431      C4432   1.410       .  A
C4432      H4436   1.084       .  S
C4433      H4443   1.111       .  S
C4433      H4444   1.109       .  S
C4433      H4445   1.110       .  S
C4435      H4446   1.111       .  S
C4435      H4447   1.110       .  S
C4435      H4448   1.109       .  S
C4449      C4450   1.400       .  A
C4449      C4454   1.402       .  A
C4449      H4459   1.085       .  S
C4450      C4451   1.412       .  A
C4450      C4455   1.485       .  S
C4451      C4456   1.506       .  S
C4451      C4452   1.407       .  A
C4452      C4453   1.405       .  A
C4452      H4457   1.083       .  S
C4453      C4454   1.417       .  A
C4454      C4458   1.507       .  S
C4455      C4460   1.409       .  A
C4455      C4464   1.403       .  A
C4456      H4472   1.110       .  S
C4456      H4473   1.111       .  S
C4456      H4474   1.111       .  S
C4458      H4469   1.110       .  S
C4458      H4470   1.110       .  S
C4458      H4471   1.108       .  S
C4460      C4465   1.506       .  S
C4460      C4461   1.403       .  A
C4461      C4462   1.408       .  A
C4461      H4466   1.083       .  S
C4462      C4463   1.414       .  A
C4463      C4467   1.502       .  S
C4463      C4464   1.405       .  A
C4464      H4468   1.085       .  S
C4465      H4475   1.111       .  S
C4465      H4476   1.110       .  S
C4465      H4477   1.111       .  S
C4467      H4478   1.111       .  S
C4467      H4479   1.103       .  S
C4467      H4480   1.110       .  S
C4481      C4482   1.401       .  A
C4481      C4486   1.399       .  A
C4481      H4491   1.085       .  S
C4482      C4483   1.409       .  A
C4482      C4487   1.471       .  S
C4483      C4488   1.506       .  S
C4483      C4484   1.398       .  A
C4484      C4485   1.401       .  A
C4484      H4489   1.085       .  S
C4485      C4486   1.412       .  A
C4486      C4490   1.508       .  S
C4487      C4492   1.408       .  A
C4487      C4496   1.396       .  A
C4488      H4504   1.110       .  S
C4488      H4505   1.110       .  S
C4488      H4506   1.111       .  S
C4490      H4501   1.110       .  S
C4490      H4502   1.110       .  S
C4490      H4503   1.107       .  S
C4492      C4497   1.507       .  S
C4492      C4493   1.401       .  A
C4493      C4494   1.408       .  A
C4493      H4498   1.084       .  S
C4494      C4495   1.422       .  A
C4495      C4499   1.507       .  S
C4495      C4496   1.400       .  A
C4496      H4500   1.085       .  S
C4497      H4507   1.111       .  S
C4497      H4508   1.110       .  S
C4497      H4509   1.110       .  S
C4499      H4510   1.111       .  S
C4499      H4511   1.109       .  S
C4499      H4512   1.108       .  S
C4513      C4514   1.391       .  A
C4513      C4518   1.393       .  A
C4513      H4523   1.085       .  S
C4514      C4515   1.411       .  A
C4514      C4519   1.466       .  S
C4515      C4520   1.505       .  S
C4515      C4516   1.404       .  A
C4516      C4517   1.399       .  A
C4516      H4521   1.084       .  S
C4517      C4518   1.424       .  A
C4518      C4522   1.510       .  S
C4519      C4524   1.408       .  A
C4519      C4528   1.400       .  A
C4520      H4536   1.111       .  S
C4520      H4537   1.109       .  S
C4520      H4538   1.111       .  S
C4522      H4533   1.107       .  S
C4522      H4534   1.111       .  S
C4522      H4535   1.109       .  S
C4524      C4529   1.507       .  S
C4524      C4525   1.397       .  A
C4525      C4526   1.400       .  A
C4525      H4530   1.084       .  S
C4526      C4527   1.413       .  A
C4527      C4531   1.507       .  S
C4527      C4528   1.399       .  A
C4528      H4532   1.084       .  S
C4529      H4539   1.110       .  S
C4529      H4540   1.111       .  S
C4529      H4541   1.110       .  S
C4531      H4542   1.110       .  S
C4531      H4543   1.108       .  S
C4531      H4544   1.110       .  S
C4545      C4546   1.404       .  A
C4545      C4550   1.407       .  A
C4545      H4555   1.085       .  S
C4546      C4547   1.414       .  A
C4546      C4551   1.499       .  S
C4547      C4552   1.505       .  S
C4547      C4548   1.410       .  A
C4548      C4549   1.406       .  A
C4548      H4553   1.084       .  S
C4549      C4550   1.419       .  A
C4550      C4554   1.509       .  S
C4551      C4556   1.414       .  A
C4551      C4560   1.401       .  A
C4552      H4568   1.109       .  S
C4552      H4569   1.110       .  S
C4552      H4570   1.111       .  S
C4554      H4565   1.110       .  S
C4554      H4566   1.110       .  S
C4554      H4567   1.107       .  S
C4556      C4561   1.507       .  S
C4556      C4557   1.413       .  A
C4557      C4558   1.410       .  A
C4557      H4562   1.084       .  S
C4558      C4559   1.424       .  A
C4559      C4563   1.508       .  S
C4559      C4560   1.410       .  A
C4560      H4564   1.084       .  S
C4561      H4571   1.111       .  S
C4561      H4572   1.109       .  S
C4561      H4573   1.111       .  S
C4563      H4574   1.111       .  S
C4563      H4575   1.109       .  S
C4563      H4576   1.111       .  S
C4577      C4582   1.398       .  A
C4577      H4587   1.085       .  S
C4578      C4579   1.413       .  A
C4578      C4583   1.481       .  S
C4579      C4584   1.505       .  S
C4579      C4580   1.410       .  A
C4580      C4581   1.404   1_545  A
C4580      H4585   1.084       .  S
C4582      C4586   1.511       .  S
C4583      C4588   1.399   1_545  A
C4584      H4600   1.110       .  S
C4584      H4601   1.109       .  S
C4584      H4602   1.111       .  S
C4586      H4597   1.108       .  S
C4586      H4598   1.111       .  S
C4586      H4599   1.109       .  S
C4588      C4593   1.510       .  S
C4588      C4589   1.400       .  A
C4589      C4590   1.430   1_565  A
C4589      H4594   1.075       .  S
C4591      C4595   1.506       .  S
C4591      C4592   1.410       .  A
C4592      H4596   1.084       .  S
C4593      H4603   1.111       .  S
C4593      H4604   1.110       .  S
C4593      H4605   1.109       .  S
C4595      H4606   1.111       .  S
C4595      H4607   1.090       .  S
C4595      H4608   1.111       .  S
C4609      C4614   1.405       .  A
C4609      H4619   1.085       .  S
C4610      C4611   1.404       .  A
C4610      C4615   1.488       .  S
C4611      C4616   1.506       .  S
C4611      C4612   1.407       .  A
C4612      C4613   1.421       .  A
C4612      H4617   1.076       .  S
C4614      C4618   1.515       .  S
C4615      C4620   1.413       .  A
C4616      H4632   1.110       .  S
C4616      H4633   1.110       .  S
C4616      H4634   1.111       .  S
C4618      H4629   1.111       .  S
C4618      H4630   1.108       .  S
C4618      H4631   1.107   1_565  S
C4620      C4625   1.506       .  S
C4620      C4621   1.405       .  A
C4621      C4622   1.404       .  A
C4621      H4626   1.084       .  S
C4623      C4627   1.509       .  S
C4623      C4624   1.405       .  A
C4624      H4628   1.084       .  S
C4625      H4635   1.111       .  S
C4625      H4636   1.109       .  S
C4625      H4637   1.110       .  S
C4627      H4638   1.109       .  S
C4627      H4639   1.111       .  S
C4627      H4640   1.111       .  S
C4641      C4642   1.402       .  A
C4641      C4646   1.409       .  A
C4641      H4651   1.085       .  S
C4642      C4643   1.405       .  A
C4642      C4647   1.482       .  S
C4643      C4648   1.511       .  S
C4643      C4644   1.399       .  A
C4644      C4645   1.415       .  A
C4644      H4649   1.084       .  S
C4645      C4646   1.426       .  A
C4646      C4650   1.509       .  S
C4647      C4652   1.401       .  A
C4647      C4656   1.388       .  A
C4648      H4664   1.111       .  S
C4648      H4665   1.107       .  S
C4648      H4666   1.111       .  S
C4650      H4661   1.110       .  S
C4650      H4662   1.110       .  S
C4650      H4663   1.099       .  S
C4652      C4657   1.509       .  S
C4652      C4653   1.402       .  A
C4653      C4654   1.426       .  A
C4653      H4658   1.083       .  S
C4654      C4655   1.455       .  A
C4655      C4659   1.516       .  S
C4655      C4656   1.407       .  A
C4656      H4660   1.085       .  S
C4657      H4667   1.111       .  S
C4657      H4668   1.110       .  S
C4657      H4669   1.107       .  S
C4659      H4670   1.102       .  S
C4659      H4671   1.102       .  S
C4659      H4672   1.111       .  S
C4673      C4674   1.393       .  A
C4673      C4678   1.404       .  A
C4673      H4683   1.085       .  S
C4674      C4675   1.404       .  A
C4674      C4679   1.485       .  S
C4675      C4680   1.507       .  S
C4675      C4676   1.407       .  A
C4676      C4677   1.423       .  A
C4676      H4681   1.077       .  S
C4677      C4678   1.443       .  A
C4678      C4682   1.516       .  S
C4679      C4684   1.410       .  A
C4679      C4688   1.398       .  A
C4680      H4696   1.110       .  S
C4680      H4697   1.110       .  S
C4680      H4698   1.111       .  S
C4682      H4693   1.111       .  S
C4682      H4694   1.107       .  S
C4682      H4695   1.105       .  S
C4684      C4689   1.506       .  S
C4684      C4685   1.407       .  A
C4685      C4686   1.409       .  A
C4685      H4690   1.084       .  S
C4686      C4687   1.424       .  A
C4687      C4691   1.508       .  S
C4687      C4688   1.404       .  A
C4688      H4692   1.084       .  S
C4689      H4699   1.111       .  S
C4689      H4700   1.110       .  S
C4689      H4701   1.110       .  S
C4691      H4702   1.108       .  S
C4691      H4703   1.109       .  S
C4691      H4704   1.111       .  S
