geometry optimzed in LAMMPS
_audit_creation_date              2020-11-30 
_audit_creation_method            'lammps2cif' 
_symmetry_space_group_name_H-M    'P1' 
_symmetry_Int_Tables_number       1 
_symmetry_cell_setting            triclinic 
loop_ 
_symmetry_equiv_pos_as_xyz 
  x,y,z 
_cell_length_a                    25.497997964970494 
_cell_length_b                    25.707990803217093 
_cell_length_c                    26.05097251624212 
_cell_angle_alpha                 89.87109404105883 
_cell_angle_beta                  89.0573984207275 
_cell_angle_gamma                 89.67712878794686 
loop_ 
_atom_site_label 
_atom_site_type_symbol 
_atom_site_fract_x 
_atom_site_fract_y 
_atom_site_fract_z 
_atom_site_charge 
O1          O  0.39947252  0.00451593  0.53167947    -0.88300
C2          C  0.53636826  0.01331748  0.60502753     0.87730
Mg3        Mg  0.37905365  0.93722550  0.48987046     1.57990
O4          O  0.53085857  0.08836162  0.49324033    -0.88030
O5          O  0.41031553  0.08808536  0.51773622    -0.75360
C6          C  0.59657654  0.88073793  0.35670627     0.92780
O7          O  0.46633910  0.91532346  0.58504698    -0.75180
O8          O  0.55319382  0.85981892  0.36980476    -0.82680
Mg9        Mg  0.42517914  0.99226057  0.60768936     1.57960
C10         C  0.64426943  0.09470965  0.38628401     0.92700
O11         O  0.38053506  0.06742114  0.63455046    -0.80940
H12         H  0.49461783  0.14321139  0.45211104    -0.06290
C13         C  0.60230772  0.94933702  0.48031482     0.87640
O14         O  0.40495930  0.97793123  0.41494554    -0.75460
O15         O  0.49533946  0.03246922  0.58821093    -0.88220
O16         O  0.63809001  0.10183235  0.43450303    -0.81030
C17         C  0.60821303  0.13892044  0.59812616     0.92820
C18         C  0.39291343  0.11484904  0.64202774     0.92670
Mg19       Mg  0.55879022  0.00395872  0.38729346     1.57950
O20         O  0.60414856  0.92946780  0.36239441    -0.80950
O21         O  0.51771464  0.08035149  0.41036516    -0.75190
O22         O  0.55875111  0.13465231  0.60397039    -0.81030
O23         O  0.35471648  0.94426718  0.62987775    -0.82740
O24         O  0.42662371  0.85822225  0.39222839    -0.81060
C25         C  0.51432993  0.10586791  0.45212006     0.87110
O26         O  0.48966765  0.96202540  0.40683671    -0.88200
O27         O  0.58609534  0.99133622  0.46315444    -0.88310
O28         O  0.57611631  0.90756203  0.47682690    -0.75370
Mg29       Mg  0.48625082  0.10925653  0.55917202     1.57970
O30         O  0.63248163  0.12225174  0.55835796    -0.82740
H31         H  0.34721929  0.04756915  0.49369057    -0.06470
O32         O  0.45590273  0.90712404  0.50183855    -0.88010
H33         H  0.49193342  0.85287931  0.54394090    -0.06290
H34         H  0.44923784  0.00045668  0.35344792    -0.06470
C35         C  0.47174737  0.88996617  0.54334056     0.87080
C36         C  0.38378126  0.04652524  0.51411166     0.87670
C37         C  0.44823385  0.98029233  0.38990991     0.87710
H38         H  0.63905792  0.94851604  0.50042549    -0.06450
O39         O  0.57975966  0.01563757  0.58027755    -0.75470
Mg40       Mg  0.50037420  0.88510870  0.43590473     1.58000
H41         H  0.53489339  0.99246529  0.64110328    -0.06460
C42         C  0.34456836  0.90017224  0.61037575     0.92700
O43         O  0.35427562  0.87097932  0.44012308    -0.82700
C44         C  0.37724963  0.85376569  0.39995609     0.92760
O45         O  0.43604666  0.13349249  0.62562158    -0.82690
Mg46       Mg  0.60734018  0.05710185  0.50635023     1.58180
O47         O  0.35248531  0.89142914  0.56267011    -0.81020
O48         O  0.62751917  0.05436584  0.36372180    -0.82710
O49         O  0.96613166  0.40867736  0.49833175    -0.88300
C50         C  0.88885949  0.54461781  0.48206611     0.87730
Mg51       Mg  0.00759476  0.38975144  0.56625387     1.58150
O52         O  0.00549796  0.53576673  0.41130167    -0.88030
O53         O  0.98238441  0.41682240  0.41542144    -0.75360
C54         C  0.14129123  0.60321109  0.61624992     0.92780
O55         O  0.90773408  0.47835457  0.58313232    -0.75180
O56         O  0.12462406  0.56141588  0.63672846    -0.82680
Mg57       Mg  0.88773433  0.43551232  0.50860068     1.57960
C58         C  0.11543262  0.64689707  0.40554636     0.92700
O59         O  0.86304693  0.38957612  0.43632950    -0.80940
H60         H  0.05053173  0.49775155  0.36001821    -0.06290
C61         C  0.01303718  0.61079395  0.54689444     0.87640
O62         O  0.08437200  0.41428490  0.52597673    -0.75460
O63         O  0.90715320  0.50301614  0.46549047    -0.88220
O64         O  0.06681214  0.64056332  0.39641904    -0.81030
C65         C  0.89965772  0.61382860  0.35726226     0.92820
C66         C  0.85846261  0.39606226  0.38800190     0.92670
Mg67       Mg  0.11074698  0.56572458  0.49668537     1.57950
O68         O  0.13535987  0.61294686  0.56865533    -0.80950
O69         O  0.09003422  0.52314239  0.42206940    -0.75190
O70         O  0.89177071  0.56499366  0.36331189    -0.81030
O71         O  0.86560060  0.36745866  0.55870167    -0.82740
O72         O  0.10391409  0.43958902  0.64272265    -0.81060
C73         C  0.04852084  0.51865054  0.39597106     0.87110
O74         O  0.08984105  0.49850886  0.53901638    -0.88200
O75         O  0.03243393  0.59366086  0.50638509    -0.88310
O76         O  0.01564424  0.58582524  0.58900104    -0.75370
Mg77       Mg  0.93915503  0.49135973  0.39021443     1.57970
O78         O  0.94240225  0.63471012  0.37077282    -0.82740
H79         H  0.00720353  0.35563391  0.45820662    -0.06470
O80         O  0.99231645  0.46658199  0.59346172    -0.88010
H81         H  0.94723251  0.50415211  0.64501538    -0.06290
H82         H  0.14663262  0.45790068  0.50315743    -0.06470
C83         C  0.94926798  0.48329181  0.60904348     0.87080
C84         C  0.98551542  0.39188184  0.45759379     0.87670
C85         C  0.10884867  0.45717454  0.52258765     0.87710
H86         H  0.99178284  0.64728662  0.54610367    -0.06450
O87         O  0.91381920  0.58727911  0.47836094    -0.75470
Mg88       Mg  0.05813890  0.51100081  0.61382833     1.58000
H89         H  0.85115065  0.54440445  0.50165213    -0.06460
C90         C  0.88550999  0.35339249  0.60109303     0.92700
O91         O  0.05775900  0.36696069  0.63310978    -0.82700
C92         C  0.09779516  0.39086744  0.64906968     0.92760
O93         O  0.87444524  0.43704854  0.36517810    -0.82690
Mg94       Mg  0.99119385  0.61235629  0.43881992     1.58180
O95         O  0.93337811  0.36209609  0.61137758    -0.81020
O96         O  0.13627584  0.63176490  0.44687641    -0.82710
O97         O  0.49990352  0.53625530  0.09041149    -0.88300
C98         C  0.48923775  0.60832379  0.95436639     0.87730
Mg99       Mg  0.56966455  0.49478166  0.10957947     1.58150
O100        O  0.41455212  0.49567170  0.96463976    -0.88030
O101        O  0.41567117  0.52137735  0.08184864    -0.75360
C102        C  0.61919718  0.35121660  0.90260935     0.92780
O103        O  0.58826586  0.58858456  0.02061682    -0.75180
O104        O  0.64327301  0.36765486  0.94179045    -0.82680
Mg105      Mg  0.51059754  0.61280447  0.06144577     1.57960
C106        C  0.40665296  0.38718344  0.85705427     0.92700
O107        O  0.43434452  0.64114497  0.10416625    -0.80940
H108        H  0.35816626  0.45633649  0.00187365    -0.06290
C109        C  0.55427496  0.47849272  0.89250793     0.87640
O110        O  0.52855637  0.41802436  0.08924224    -0.75460
O111        O  0.46937288  0.59222073  0.99508429    -0.88220
O112        O  0.40173213  0.43635491  0.86073142    -0.81030
C113        C  0.36316758  0.59938017  0.88631810     0.92820
C114        C  0.38534344  0.64671437  0.09557991     0.92670
Mg115      Mg  0.49718551  0.38661470  0.94109545     1.57950
O116        O  0.56997123  0.35710899  0.89727867    -0.80950
O117        O  0.42119297  0.41219575  0.98143940    -0.75190
O118        O  0.36570245  0.60574095  0.93467655    -0.81030
O119        O  0.55893886  0.63675180  0.12858657    -0.82740
O120        O  0.64482786  0.39032714  0.06615008    -0.81060
C121        C  0.39598993  0.45494006  0.98253842     0.87110
O122        O  0.54117099  0.40769100  0.00613482    -0.88200
O123        O  0.51204355  0.46251763  0.91050611    -0.88310
O124        O  0.59672117  0.47554112  0.91729254    -0.75370
Mg125      Mg  0.39222510  0.56215395  0.00668804     1.57970
O126        O  0.38203389  0.55965528  0.86367110    -0.82740
H127        H  0.45756187  0.49786616  0.14340282    -0.06470
O128        O  0.59768221  0.50444817  0.03336938    -0.88010
H129        H  0.65125677  0.54670080  0.99514650    -0.06290
H130        H  0.50387588  0.35496736  0.04973218    -0.06470
C131        C  0.61418748  0.54627405  0.01588826     0.87080
C132        C  0.45794592  0.51823687  0.10704849     0.87670
C133        C  0.52421255  0.39173697  0.04815094     0.87710
H134        H  0.55463836  0.49747699  0.85543107    -0.06450
O135        O  0.48848643  0.58202207  0.91311532    -0.75470
Mg136      Mg  0.61898070  0.43541445  0.99250079     1.58000
H137        H  0.50990808  0.64492599  0.95446324    -0.06460
C138        C  0.60349976  0.61807415  0.14034186     0.92700
O139        O  0.63940771  0.44578528  0.13159572    -0.82700
C140        C  0.65289270  0.40179327  0.11306069     0.92760
O141        O  0.36467302  0.62901513  0.05525262    -0.82690
Mg142      Mg  0.44680830  0.50742334  0.88912065     1.58180
O143        O  0.61478848  0.57016589  0.13270061    -0.81020
O144        O  0.44511654  0.36244807  0.87605689    -0.82710
O145        O  0.03845388  0.99695045  0.90723272    -0.88300
C146        C  0.10985116  0.98637433  0.04342034     0.87730
Mg147      Mg  0.99602158  0.06355838  0.88462481     1.58150
O148        O  0.99727797  0.91176799  0.03236520    -0.88030
O149        O  0.02650140  0.91285295  0.91608181    -0.75360
C150        C  0.85176710  0.12040877  0.09237278     0.92780
O151        O  0.09080483  0.08658316  0.97400105    -0.75180
O152        O  0.86835310  0.14226381  0.05129230    -0.82680
Mg153      Mg  0.11538699  0.00992006  0.93496194     1.57960
C154        C  0.88285531  0.90325162  0.13952015     0.92700
O155        O  0.14237536  0.93673092  0.89143430    -0.80940
H156        H  0.95638497  0.85804109  0.99491242    -0.06290
C157        C  0.98051739  0.05057170  0.10292578     0.87640
O158        O  0.91872963  0.02377132  0.90832225    -0.75460
O159        O  0.09371682  0.96872002  0.00239261    -0.88220
O160        O  0.93214546  0.89578205  0.13350179    -0.81030
C161        C  0.10080197  0.85806936  0.11144302     0.92820
C162        C  0.15075046  0.88893905  0.90103094     0.92670
Mg163      Mg  0.88697930  0.99652683  0.05781956     1.57950
O164        O  0.85811350  0.07155953  0.09996990    -0.80950
O165        O  0.91286532  0.92035905  0.01800684    -0.75190
O166        O  0.11206791  0.86634976  0.06430436    -0.81030
O167        O  0.14172491  0.05768033  0.86730395    -0.82740
O168        O  0.89541479  0.14190180  0.92673793    -0.81060
C169        C  0.95579063  0.89489012  0.01483716     0.87110
O170        O  0.90863246  0.03900305  0.99089641    -0.88200
O171        O  0.96362008  0.00858550  0.08690273    -0.88310
O172        O  0.97712302  0.09254585  0.07706193    -0.75370
Mg173      Mg  0.06716868  0.89148308  0.99150986     1.57970
O174        O  0.05717763  0.87240115  0.13147382    -0.82740
H175        H  0.00241309  0.95434899  0.85432751    -0.06470
O176        O  0.00635306  0.09432063  0.95983936    -0.88010
H177        H  0.04709152  0.14919485  0.99582343    -0.06290
H178        H  0.85484353  0.00152466  0.95018751    -0.06470
C179        C  0.04781804  0.11190628  0.97670907     0.87080
C180        C  0.02218059  0.95496470  0.89071699     0.87670
C181        C  0.89217615  0.02125936  0.95003934     0.87710
H182        H  0.00016048  0.05128241  0.13937855    -0.06450
O183        O  0.08355051  0.98244162  0.08519993    -0.75470
Mg184      Mg  0.93757502  0.11593507  0.00136186     1.58000
H185        H  0.14670664  0.00695928  0.04346719    -0.06460
C186        C  0.11966411  0.09885241  0.85128700     0.92700
O187        O  0.94669131  0.13068233  0.85765174    -0.82700
C188        C  0.90430271  0.14698988  0.87846856     0.92760
O189        O  0.13725722  0.86797051  0.94337702    -0.82690
Mg190      Mg  0.00679518  0.94078458  0.10781457     1.58180
O191        O  0.07052018  0.10643271  0.85757589    -0.81020
O192        O  0.86116101  0.94552671  0.12509391    -0.82710
C193        C  0.75154483  0.75045195  0.24973710    -0.02440
C194        C  0.74305144  0.24159636  0.74506077    -0.02440
C195        C  0.25565895  0.74633856  0.75373029    -0.02440
C196        C  0.25158586  0.26004132  0.75319834    -0.02440
C197        C  0.74925644  0.24957940  0.25483484    -0.02440
C198        C  0.24632228  0.74872722  0.24940702    -0.02440
C199        C  0.20679574  0.77823859  0.21380086    -0.05420
C200        C  0.22585463  0.81639642  0.17911920    -0.32850
C201        C  0.19243147  0.84219852  0.14472110     0.36400
C202        C  0.13859587  0.83027861  0.14414184    -0.05780
C203        C  0.11957828  0.79141009  0.17634408    -0.32750
C204        C  0.15275394  0.76353066  0.20843305     0.36300
H205        H  0.26704018  0.82647658  0.17897537     0.16670
O206        O  0.21264981  0.87958507  0.11254230    -0.60250
H207        H  0.07857458  0.78058244  0.17490742     0.16690
O208        O  0.13138642  0.72082508  0.23253321    -0.60340
H209        H  0.12128447  0.69639706  0.20498475     0.43680
H210        H  0.20886112  0.91269550  0.13173585     0.43640
C211        C  0.78185898  0.21518019  0.21519625    -0.05420
C212        C  0.77214201  0.16078335  0.21036840    -0.32850
C213        C  0.79433840  0.13030563  0.17134034     0.36400
C214        C  0.82652341  0.15288049  0.13343918    -0.05780
C215        C  0.83642684  0.20661365  0.13653690    -0.32750
C216        C  0.81440632  0.23755821  0.17620920     0.36300
H217        H  0.74466255  0.14038851  0.23485355     0.16670
O218        O  0.78145770  0.07858815  0.16913527    -0.60250
H219        H  0.86135656  0.22506401  0.10785878     0.16690
O220        O  0.82371774  0.29007753  0.17540804    -0.60340
H221        H  0.80336972  0.30394920  0.14621463     0.43680
H222        H  0.80432148  0.06109248  0.19441619     0.43640
C223        C  0.21659547  0.22076734  0.78448141    -0.05420
C224        C  0.16105259  0.22072512  0.77988928    -0.32850
C225        C  0.12961154  0.18195571  0.80121032     0.36400
C226        C  0.15242294  0.13990473  0.82707633    -0.05780
C227        C  0.20719271  0.13869683  0.83218335    -0.32750
C228        C  0.23906201  0.17794369  0.81112905     0.36300
H229        H  0.14015527  0.24909446  0.75757847     0.16670
O230        O  0.07643059  0.18463470  0.79414997    -0.60250
H231        H  0.22578711  0.10703443  0.85264726     0.16690
O232        O  0.29239276  0.17386322  0.81660749    -0.60340
H233        H  0.30348497  0.14377451  0.79516630     0.43680
H234        H  0.06301439  0.20880095  0.82100792     0.43640
C235        C  0.17641823  0.85663503  0.86183263    -0.05420
C236        C  0.14811390  0.83791891  0.82031427    -0.32850
C237        C  0.17066806  0.80261229  0.78481628     0.36400
C238        C  0.22430592  0.78677206  0.78911217    -0.05780
C239        C  0.25056136  0.80635884  0.83318721    -0.32750
C240        C  0.22756391  0.84007082  0.86850304     0.36300
H241        H  0.10725917  0.84898325  0.81657979     0.16670
O242        O  0.13780889  0.78158787  0.74970799    -0.60250
H243        H  0.28884445  0.79250164  0.84384112     0.16690
O244        O  0.25546095  0.85592299  0.91024339    -0.60340
H245        H  0.25010021  0.82835950  0.93647872     0.43680
H246        H  0.12691850  0.81090306  0.72733630     0.43640
C247        C  0.86344819  0.17018926  0.84512752    -0.05420
C248        C  0.86472346  0.16172513  0.79172403    -0.32850
C249        C  0.82551274  0.18188274  0.75961122     0.36400
C250        C  0.78273812  0.21122142  0.78032457    -0.05780
C251        C  0.78331904  0.21958210  0.83449957    -0.32750
C252        C  0.82160445  0.19882251  0.86616932     0.36300
H253        H  0.89639723  0.13923428  0.77443343     0.16670
O254        O  0.82994560  0.17314801  0.70779089    -0.60250
H255        H  0.75543165  0.24411135  0.85441304     0.16690
O256        O  0.81874245  0.20927066  0.91780066    -0.60340
H257        H  0.79347983  0.18369207  0.93221212     0.43680
H258        H  0.86011247  0.19441549  0.69580601     0.43640
C259        C  0.78822540  0.78320581  0.21323348    -0.05420
C260        C  0.76500498  0.82224680  0.18253975    -0.32850
C261        C  0.79496076  0.86076940  0.15800217     0.36400
C262        C  0.84997678  0.86100839  0.16255670    -0.05780
C263        C  0.87381318  0.81770276  0.18558639    -0.32750
C264        C  0.84383442  0.77804289  0.20894711     0.36300
H265        H  0.72283993  0.82548161  0.18060465     0.16670
O266        O  0.76960030  0.89835978  0.13024158    -0.60250
H267        H  0.91616281  0.81394340  0.18493245     0.16690
O268        O  0.86897742  0.73283471  0.22272248    -0.60340
H269        H  0.89916995  0.74311608  0.24397853     0.43680
H270        H  0.76850296  0.88456391  0.09473282     0.43640
C271        C  0.28342938  0.71845174  0.21093992    -0.05420
C272        C  0.33596489  0.73536333  0.20191532    -0.32850
C273        C  0.36934286  0.71197999  0.16572454     0.36400
C274        C  0.35066476  0.67255001  0.13415317    -0.05780
C275        C  0.29792406  0.65747529  0.13962506    -0.32750
C276        C  0.26456453  0.67969874  0.17736252     0.36300
H277        H  0.35203717  0.76848409  0.22148977     0.16670
O278        O  0.41989141  0.72949726  0.16045354    -0.60250
H279        H  0.28236212  0.62780334  0.11472752     0.16690
O280        O  0.21287390  0.66525861  0.17931250    -0.60340
H281        H  0.21256368  0.62682633  0.18309058     0.43680
H282        H  0.41829109  0.75784554  0.13463999     0.43640
C283        C  0.33857111  0.63986488  0.85530198    -0.05420
C284        C  0.28720643  0.65462520  0.86671269    -0.32850
C285        C  0.26095605  0.68940005  0.83501679     0.36400
C286        C  0.28728344  0.71259622  0.79173930    -0.05780
C287        C  0.34045960  0.69972378  0.78276542    -0.32750
C288        C  0.36555316  0.66271950  0.81349191     0.36300
H289        H  0.26614949  0.63654639  0.89847545     0.16670
O290        O  0.20794671  0.69610697  0.84305440    -0.60250
H291        H  0.36187526  0.71550898  0.75017479     0.16690
O292        O  0.41657929  0.64907500  0.80244010    -0.60340
H293        H  0.41444204  0.62192797  0.77556972     0.43680
H294        H  0.20416604  0.71467337  0.87627826     0.43640
C295        C  0.64895390  0.32557347  0.86109566    -0.05420
C296        C  0.63909162  0.27366662  0.85062700    -0.32850
C297        C  0.66756667  0.24760949  0.81244460     0.36400
C298        C  0.70606487  0.27416030  0.78146995    -0.05780
C299        C  0.71160898  0.32815466  0.78936583    -0.32750
C300        C  0.68451533  0.35333642  0.82971135     0.36300
H301        H  0.61067226  0.25242049  0.87376658     0.16670
O302        O  0.65939032  0.19512997  0.80756197    -0.60250
H303        H  0.73763346  0.35123875  0.76575603     0.16690
O304        O  0.69321045  0.40517041  0.83832995    -0.60340
H305        H  0.66604298  0.42376851  0.81845746     0.43680
H306        H  0.67868305  0.17856911  0.83608022     0.43640
C307        C  0.67684256  0.36293992  0.14811037    -0.05420
C308        C  0.66799723  0.30933432  0.14239011    -0.32850
C309        C  0.68738514  0.27276590  0.17814530     0.36400
C310        C  0.71739528  0.28921077  0.22079618    -0.05780
C311        C  0.72577679  0.34382496  0.22483447    -0.32750
C312        C  0.70588299  0.37964280  0.19001994     0.36300
H313        H  0.64544581  0.29560469  0.11029680     0.16670
O314        O  0.67959641  0.22076394  0.16925959    -0.60250
H315        H  0.75048264  0.36079594  0.25330168     0.16690
O316        O  0.71679934  0.43139831  0.19677646    -0.60340
H317        H  0.74997816  0.43744362  0.17733784     0.43680
H318        H  0.64106288  0.21570590  0.16970402     0.43640
C319        C  0.71335227  0.72142053  0.21308742    -0.05420
C320        C  0.73213200  0.67946233  0.18285613    -0.32850
C321        C  0.69722650  0.64462113  0.15977928     0.36400
C322        C  0.64265442  0.65387629  0.16273644    -0.05780
C323        C  0.62514664  0.70118563  0.18339862    -0.32750
C324        C  0.65965723  0.73557547  0.20679605     0.36300
H325        H  0.77374016  0.67071591  0.18141168     0.16670
O326        O  0.71699910  0.60215434  0.13407279    -0.60250
H327        H  0.58412562  0.71210354  0.18130871     0.16690
O328        O  0.64144680  0.78459804  0.21884033    -0.60340
H329        H  0.60806530  0.78011978  0.23847321     0.43680
H330        H  0.72277749  0.57540088  0.16089408     0.43640
C331        C  0.28665399  0.29693256  0.78538214    -0.05420
C332        C  0.31461471  0.33608845  0.75783475    -0.32850
C333        C  0.35274067  0.36638777  0.78092948     0.36400
C334        C  0.36497466  0.35771658  0.83229427    -0.05780
C335        C  0.33518733  0.32230745  0.86136217    -0.32750
C336        C  0.29491520  0.29355279  0.83906586     0.36300
H337        H  0.30883306  0.34118047  0.71702060     0.16670
O338        O  0.38010565  0.40210641  0.75209457    -0.60250
H339        H  0.34250106  0.31774159  0.90199800     0.16690
O340        O  0.26438189  0.26321161  0.87060188    -0.60340
H341        H  0.23539292  0.28623659  0.88259523     0.43680
H342        H  0.35869481  0.43440312  0.75376676     0.43640
C343        C  0.16862793  0.64025396  0.64975563    -0.05420
C344        C  0.19792055  0.61975686  0.68941461    -0.32850
C345        C  0.22556646  0.65121072  0.72267603     0.36400
C346        C  0.22128375  0.70731261  0.72065420    -0.05780
C347        C  0.19026861  0.72700180  0.67987334    -0.32750
C348        C  0.16486812  0.69449199  0.64478707     0.36300
H349        H  0.20205493  0.57790546  0.69326359     0.16670
O350        O  0.25865797  0.62458641  0.75430002    -0.60250
H351        H  0.18883416  0.76844705  0.67260150     0.16690
O352        O  0.13698459  0.71634006  0.60559725    -0.60340
H353        H  0.10078486  0.72056427  0.61949198     0.43680
H354        H  0.28979922  0.61554590  0.73270735     0.43640
C355        C  0.14936021  0.67130964  0.36665404    -0.05420
C356        C  0.18693048  0.64140632  0.33963513    -0.32850
C357        C  0.21960833  0.66398415  0.30158360     0.36400
C358        C  0.21452197  0.71769423  0.29043341    -0.05780
C359        C  0.17933008  0.74749448  0.32172022    -0.32750
C360        C  0.14644439  0.72469716  0.35823668     0.36300
H361        H  0.19097052  0.60031384  0.34817902     0.16670
O362        O  0.25872807  0.63448920  0.27921675    -0.60250
H363        H  0.17561103  0.78905282  0.31593558     0.16690
O364        O  0.11142764  0.75501734  0.38548085    -0.60340
H365        H  0.13075535  0.76671755  0.41606956     0.43680
H366        H  0.24166334  0.60276316  0.26586752     0.43640
C367        C  0.77828969  0.27374022  0.70586134    -0.05420
C368        C  0.81754458  0.30721754  0.72485940    -0.32850
C369        C  0.85354288  0.33285244  0.69196303     0.36400
C370        C  0.85127169  0.32579351  0.63846583    -0.05780
C371        C  0.81383630  0.29259832  0.61909606    -0.32750
C372        C  0.77979910  0.26509552  0.65109836     0.36300
H373        H  0.82123012  0.31256993  0.76586390     0.16670
O374        O  0.89046465  0.36486930  0.71259356    -0.60250
H375        H  0.81261181  0.28544417  0.57810683     0.16690
O376        O  0.75161240  0.22732992  0.62706188    -0.60340
H377        H  0.77589035  0.19731490  0.62292072     0.43680
H378        H  0.87409805  0.39995020  0.71303776     0.43640
C379        C  0.13940545  0.36082553  0.67383650    -0.05420
C380        C  0.14713760  0.36619368  0.72625306    -0.32850
C381        C  0.18432768  0.33554735  0.75109400     0.36400
C382        C  0.21529447  0.29819887  0.72328750    -0.05780
C383        C  0.21023264  0.29694378  0.66946370    -0.32750
C384        C  0.17181887  0.32692858  0.64508920     0.36300
H385        H  0.12281316  0.39285214  0.74848229     0.16670
O386        O  0.18691103  0.33905966  0.80354333    -0.60250
H387        H  0.23479860  0.27211156  0.64582174     0.16690
O388        O  0.16570650  0.32231090  0.59308253    -0.60340
H389        H  0.18783601  0.35002171  0.57767932     0.43680
H390        H  0.20558107  0.37203043  0.81027164     0.43640
C391        C  0.85777105  0.64788205  0.33554205    -0.05420
C392        C  0.81378134  0.62611918  0.31243444    -0.32850
C393        C  0.77527955  0.65772639  0.28956683     0.36400
C394        C  0.78295691  0.71251310  0.28532175    -0.05780
C395        C  0.82129591  0.73390687  0.31742182    -0.32750
C396        C  0.85880491  0.70250518  0.34141384     0.36300
H397        H  0.80849680  0.58433440  0.31289690     0.16670
O398        O  0.72817513  0.63549410  0.27748813    -0.60250
H399        H  0.82502700  0.77569703  0.32045185     0.16690
O400        O  0.89595010  0.72588403  0.37094088    -0.60340
H401        H  0.92249287  0.73955803  0.34626455     0.43680
H402        H  0.73647446  0.60366134  0.25740366     0.43640
C403        C  0.83368182  0.35476047  0.35763878    -0.05420
C404        C  0.78095431  0.34384060  0.36625124    -0.32850
C405        C  0.75477704  0.30881481  0.33495289     0.36400
C406        C  0.78178221  0.28176227  0.29422687    -0.05780
C407        C  0.83652116  0.28891273  0.28995403    -0.32750
C408        C  0.86199624  0.32613383  0.32021346     0.36300
H409        H  0.75903756  0.36474669  0.39572934     0.16670
O410        O  0.70169995  0.30358481  0.34268119    -0.60250
H411        H  0.85978770  0.26728636  0.26230824     0.16690
O412        O  0.91456717  0.33471196  0.31249054    -0.60340
H413        H  0.93235310  0.31146100  0.33724016     0.43680
H414        H  0.68562423  0.33541341  0.32801034     0.43640
C415        C  0.29210729  0.77942577  0.71616825    -0.05420
C416        C  0.29385355  0.77049994  0.66233845    -0.32850
C417        C  0.30881472  0.80944752  0.62730022     0.36400
C418        C  0.32720804  0.85743824  0.64525387    -0.05780
C419        C  0.33654355  0.86196977  0.69787313    -0.32750
C420        C  0.32183414  0.82281837  0.73273476     0.36300
H421        H  0.28226968  0.73368540  0.64633794     0.16670
O422        O  0.30545402  0.79974620  0.57571816    -0.60250
H423        H  0.35758445  0.89529490  0.71220928     0.16690
O424        O  0.34294893  0.82428828  0.78071230    -0.60340
H425        H  0.33519049  0.85941630  0.79476667     0.43680
H426        H  0.26896203  0.80914258  0.56671693     0.43640
C427        C  0.66954328  0.13550157  0.35497930    -0.05420
C428        C  0.63886590  0.16829110  0.32425379    -0.32850
C429        C  0.66192215  0.20708474  0.29318291     0.36400
C430        C  0.71731055  0.21190930  0.29056862    -0.05780
C431        C  0.74706804  0.17963800  0.32385651    -0.32750
C432        C  0.72379746  0.14204028  0.35533927     0.36300
H433        H  0.59657490  0.16423840  0.32490960     0.16670
O434        O  0.62963101  0.23988738  0.26669178    -0.60250
H435        H  0.78945463  0.18248039  0.32389147     0.16690
O436        O  0.75461762  0.11119614  0.38567760    -0.60340
H437        H  0.76442839  0.08094049  0.36393280     0.43680
H438        H  0.61720605  0.26604921  0.29207168     0.43640
C439        C  0.70354046  0.20937945  0.71334172    -0.05420
C440        C  0.66398963  0.23813391  0.68744206    -0.32850
C441        C  0.63153352  0.21512324  0.65158184     0.36400
C442        C  0.63842620  0.16267462  0.63939574    -0.05780
C443        C  0.67401921  0.13242503  0.66743030    -0.32750
C444        C  0.70512124  0.15480266  0.70551582     0.36300
H445        H  0.66051425  0.27981289  0.69270853     0.16670
O446        O  0.59597027  0.24519861  0.62578104    -0.60250
H447        H  0.67757356  0.09112195  0.65981533     0.16690
O448        O  0.73718314  0.12292004  0.73325377    -0.60340
H449        H  0.71561920  0.11156568  0.76318189     0.43680
H450        H  0.56352028  0.24431077  0.64725974     0.43640
C451        C  0.35669080  0.15056509  0.66966747    -0.05420
C452        C  0.30224718  0.14822525  0.66312088    -0.32850
C453        C  0.26829811  0.18468327  0.68696614     0.36400
C454        C  0.28847084  0.22498867  0.71842682    -0.05780
C455        C  0.34385916  0.22562301  0.72432243    -0.32750
C456        C  0.37713962  0.19010367  0.70010917     0.36300
H457        H  0.28587089  0.11825236  0.63910784     0.16670
O458        O  0.21528483  0.17976917  0.68022050    -0.60250
H459        H  0.36329314  0.25153326  0.75013993     0.16690
O460        O  0.42998104  0.19264695  0.70918407    -0.60340
H461        H  0.44318982  0.22138033  0.68711951     0.43680
H462        H  0.20497939  0.14801565  0.69950437     0.43640
C463        C  0.71965630  0.78579823  0.28793248    -0.05420
C464        C  0.67929026  0.76263709  0.31774963    -0.32850
C465        C  0.63925139  0.79274253  0.34049797     0.36400
C466        C  0.64004870  0.84750861  0.33598905    -0.05780
C467        C  0.68521038  0.87069776  0.31487092    -0.32750
C468        C  0.72570785  0.84054152  0.29309138     0.36300
H469        H  0.67568522  0.72070128  0.31889643     0.16670
O470        O  0.59919457  0.76794176  0.36621333    -0.60250
H471        H  0.68945890  0.91260168  0.31521408     0.16690
O472        O  0.77096675  0.86535502  0.27838512    -0.60340
H473        H  0.79278557  0.86609042  0.30951278     0.43680
H474        H  0.57500478  0.75628100  0.33916933     0.43640
C475        C  0.34515571  0.82902606  0.36067319    -0.05420
C476        C  0.30693089  0.85808191  0.33472628    -0.32850
C477        C  0.27529351  0.83509736  0.29723872     0.36400
C478        C  0.28124322  0.78145412  0.28586125    -0.05780
C479        C  0.31891844  0.75287403  0.31438369    -0.32750
C480        C  0.35103142  0.77620639  0.35019056     0.36300
H481        H  0.30140216  0.89888725  0.34379125     0.16670
O482        O  0.23633955  0.86447262  0.27577583    -0.60250
H483        H  0.32375112  0.71145871  0.30830446     0.16690
O484        O  0.38732351  0.74666412  0.37564267    -0.60340
H485        H  0.36846912  0.73306211  0.40640066     0.43680
H486        H  0.25458286  0.89127517  0.25478297     0.43640
loop_ 
_geom_bond_atom_site_label_1 
_geom_bond_atom_site_label_2 
_geom_bond_distance 
_geom_bond_site_symmetry_2 
_ccdc_geom_bond_type 
O1           Mg3   2.118   1_545  S
O1           Mg9   2.118   1_545  S
O1           C36   1.239       .  S
C2           O15   1.240       .  S
C2           O39   1.273       .  A
C2           H41   1.081   1_545  S
Mg3          O32   2.130       .  S
Mg3          O47   2.323       .  S
Mg3          O43   2.242       .  S
Mg3          O14   2.302       .  S
O4          Mg46   2.137       .  S
O4          Mg29   2.113       .  S
O4           C25   1.240       .  S
O5           C36   1.272       .  A
O5          Mg29   2.301       .  S
C6            O8   1.274       .  A
C6           O20   1.278       .  A
C6          C466   1.490       .  S
O7           C35   1.273       .  A
O7           Mg9   2.307       .  S
O8          Mg40   2.263       .  S
Mg9          O15   2.125   1_565  S
Mg9          O23   2.252       .  S
Mg9          O11   2.340   1_565  S
C10          O48   1.273       .  A
C10          O16   1.277       .  A
C10         C427   1.472       .  S
O11          C18   1.277       .  A
H12          C25   1.081       .  S
C13          O27   1.239       .  S
C13          O28   1.272       .  A
C13          H38   1.081       .  S
O14          C37   1.274       .  A
O15         Mg29   2.125       .  S
O16         Mg46   2.322       .  S
C17          O30   1.272       .  A
C17          O22   1.273       .  A
C17         C442   1.469       .  S
C18          O45   1.269       .  A
C18         C451   1.479       .  S
Mg19         O26   2.125   1_545  S
Mg19         O27   2.130   1_545  S
Mg19         O20   2.320   1_545  S
Mg19         O21   2.297       .  S
Mg19         O48   2.261       .  S
O21          C25   1.273       .  A
O22         Mg29   2.301       .  S
O23          C42   1.273       .  A
O24          C44   1.277       .  A
O24         Mg40   2.323       .  S
O26         Mg40   2.134       .  S
O26          C37   1.241       .  S
O27         Mg46   2.111   1_565  S
O28         Mg40   2.298       .  S
Mg29         O45   2.224       .  S
O30         Mg46   2.259       .  S
H31          C36   1.081       .  S
O32         Mg40   2.119       .  S
O32          C35   1.240       .  S
H33          C35   1.081       .  S
H34          C37   1.081   1_545  S
O39         Mg46   2.301       .  S
C42          O47   1.276       .  A
C42         C418   1.489       .  S
O43          C44   1.270       .  A
C44         C475   1.469       .  S
O49         Mg51   2.130   1_655  S
O49         Mg57   2.124       .  S
O49          C84   1.241       .  S
C50          O63   1.240       .  S
C50          O87   1.274       .  A
C50          H89   1.081       .  S
Mg51         O80   2.132   1_455  S
Mg51         O95   2.325   1_455  S
Mg51         O91   2.252       .  S
Mg51         O62   2.297       .  S
O52         Mg94   2.124   1_455  S
O52         Mg77   2.126   1_455  S
O52          C73   1.240       .  S
O53          C84   1.274       .  A
O53         Mg77   2.305       .  S
C54          O56   1.271       .  A
C54          O68   1.276       .  A
C54         C343   1.478       .  S
O55          C83   1.272       .  A
O55         Mg57   2.300       .  S
O56         Mg88   2.230       .  S
Mg57         O63   2.121       .  S
Mg57         O71   2.249       .  S
Mg57         O59   2.322       .  S
C58          O96   1.268       .  A
C58          O64   1.278       .  A
C58         C355   1.464       .  S
O59          C66   1.277       .  A
H60          C73   1.081       .  S
C61          O75   1.239       .  S
C61          O76   1.272       .  A
C61          H86   1.081   1_455  S
O62          C85   1.272       .  A
O63         Mg77   2.133       .  S
O64         Mg94   2.325   1_455  S
C65          O78   1.273       .  A
C65          O70   1.282       .  A
C65         C391   1.495       .  S
C66          O93   1.274       .  A
C66         C403   1.477       .  S
Mg67         O74   2.114       .  S
Mg67         O75   2.130       .  S
Mg67         O68   2.332       .  S
Mg67         O69   2.303       .  S
Mg67         O96   2.228       .  S
O69          C73   1.273       .  A
O70         Mg77   2.352       .  S
O71          C90   1.274       .  A
O72          C92   1.273       .  A
O72         Mg88   2.302       .  S
O74         Mg88   2.122       .  S
O74          C85   1.240       .  S
O75         Mg94   2.118   1_455  S
O76         Mg88   2.299       .  S
Mg77         O93   2.272       .  S
O78         Mg94   2.254       .  S
H79          C84   1.081   1_455  S
O80         Mg88   2.111   1_655  S
O80          C83   1.239       .  S
H81          C83   1.081       .  S
H82          C85   1.081       .  S
O87         Mg94   2.305       .  S
C90          O95   1.275       .  A
C90         C370   1.480       .  S
O91          C92   1.271       .  A
C92         C379   1.466       .  S
O97         Mg99   2.134       .  S
O97        Mg105   2.123       .  S
O97         C132   1.240       .  S
C98         O111   1.239       .  S
C98         O135   1.271       .  A
C98         H137   1.081       .  S
Mg99        O128   2.113       .  S
Mg99        O143   2.344       .  S
Mg99        O139   2.255       .  S
Mg99        O110   2.306       .  S
O100       Mg142   2.141       .  S
O100       Mg125   2.103   1_556  S
O100        C121   1.239       .  S
O101        C132   1.273       .  A
O101       Mg125   2.305       .  S
C102        O104   1.274       .  A
C102        O116   1.273       .  A
C102        C295   1.466       .  S
O103        C131   1.275       .  A
O103       Mg105   2.315       .  S
O104       Mg136   2.266       .  S
Mg105       O111   2.108   1_554  S
Mg105       O119   2.245       .  S
Mg105       O107   2.338       .  S
C106        O144   1.272       .  A
C106        O112   1.273       .  A
C106        C334   1.467       .  S
O107        C114   1.280       .  A
H108        C121   1.081   1_554  S
C109        O123   1.239       .  S
C109        O124   1.271       .  A
C109        H134   1.081       .  S
O110        C133   1.274       .  A
O111       Mg125   2.134   1_556  S
O112       Mg142   2.294       .  S
C113        O126   1.269       .  A
C113        O118   1.273       .  A
C113        C283   1.461       .  S
C114        O141   1.269       .  A
C114        C274   1.483       .  S
Mg115       O122   2.120   1_556  S
Mg115       O123   2.140       .  S
Mg115       O116   2.289       .  S
Mg115       O117   2.283       .  S
Mg115       O144   2.260       .  S
O117        C121   1.270       .  A
O118       Mg125   2.293   1_556  S
O119        C138   1.273       .  A
O120        C140   1.278       .  A
O120       Mg136   2.341   1_554  S
O122       Mg136   2.136   1_554  S
O122        C133   1.240       .  S
O123       Mg142   2.101       .  S
O124       Mg136   2.290       .  S
Mg125       O141   2.240       .  S
O126       Mg142   2.231       .  S
H127        C132   1.081       .  S
O128       Mg136   2.135   1_554  S
O128        C131   1.240       .  S
H129        C131   1.081   1_556  S
H130        C133   1.081       .  S
O135       Mg142   2.291       .  S
C138        O143   1.279       .  A
C138        C322   1.489       .  S
O139        C140   1.274       .  A
C140        C307   1.487       .  S
O145       Mg147   2.108   1_465  S
O145       Mg153   2.130   1_565  S
O145        C180   1.239       .  S
C146        O159   1.239       .  S
C146        O183   1.273       .  A
C146        H185   1.081   1_565  S
Mg147       O176   2.136   1_655  S
Mg147       O191   2.301   1_655  S
Mg147       O187   2.248       .  S
Mg147       O158   2.300       .  S
O148       Mg190   2.122   1_655  S
O148       Mg173   2.124   1_654  S
O148        C169   1.240       .  S
O149        C180   1.272       .  A
O149       Mg173   2.301       .  S
C150        O152   1.275       .  A
C150        O164   1.281       .  A
C150        C214   1.494       .  S
O151        C179   1.273       .  A
O151       Mg153   2.299       .  S
O152       Mg184   2.276       .  S
Mg153       O159   2.116   1_546  S
Mg153       O167   2.242       .  S
Mg153       O155   2.295   1_545  S
C154        O192   1.275       .  A
C154        O160   1.277       .  A
C154        C262   1.494       .  S
O155        C162   1.271       .  A
H156        C169   1.081   1_556  S
C157        O171   1.240       .  S
C157        O172   1.274       .  A
C157        H182   1.081   1_655  S
O158        C181   1.273       .  A
O159       Mg173   2.123   1_554  S
O160       Mg190   2.321   1_655  S
C161        O174   1.274       .  A
C161        O166   1.274       .  A
C161        C202   1.477       .  S
C162        O189   1.270       .  A
C162        C235   1.462       .  S
Mg163       O170   2.122   1_564  S
Mg163       O171   2.132   1_565  S
Mg163       O164   2.331   1_565  S
Mg163       O165   2.306       .  S
Mg163       O192   2.277       .  S
O165        C169   1.274       .  A
O166       Mg173   2.320   1_554  S
O167        C186   1.269       .  A
O168        C188   1.281       .  A
O168       Mg184   2.331   1_556  S
O170       Mg184   2.134   1_556  S
O170        C181   1.239       .  S
O171       Mg190   2.131   1_645  S
O172       Mg184   2.307       .  S
Mg173       O189   2.247       .  S
O174       Mg190   2.262       .  S
H175        C180   1.081       .  S
O176       Mg184   2.117   1_456  S
O176        C179   1.240       .  S
H177        C179   1.081       .  S
H178        C181   1.081       .  S
O183       Mg190   2.304       .  S
C186        O191   1.275       .  A
C186        C226   1.483       .  S
O187        C188   1.271       .  A
C188        C247   1.489       .  S
C193        C259   1.570       .  S
C193        C319   1.568       .  S
C193        C394   1.570       .  S
C193        C463   1.564       .  S
C194        C250   1.580       .  S
C194        C298   1.567       .  S
C194        C367   1.583       .  S
C194        C439   1.557       .  S
C195        C238   1.594       .  S
C195        C286   1.548       .  S
C195        C346   1.599       .  S
C195        C415   1.587       .  S
C196        C223   1.569       .  S
C196        C331   1.562       .  S
C196        C382   1.561       .  S
C196        C454   1.576       .  S
C197        C211   1.583       .  S
C197        C310   1.579       .  S
C197        C406   1.570       .  S
C197        C430   1.565       .  S
C198        C199   1.572       .  S
C198        C271   1.571       .  S
C198        C358   1.553       .  S
C198        C478   1.563       .  S
C199        C200   1.415       .  A
C199        C204   1.440       .  A
C200        H205   1.083       .  S
C200        C201   1.409       .  A
C201        C202   1.409       .  A
C201        O206   1.371       .  S
C202        C203   1.388       .  A
C203        H207   1.085       .  S
C203        C204   1.393       .  A
C204        O208   1.374       .  S
O206        H210   0.992       .  S
O208        H209   0.993       .  S
C211        C212   1.428       .  A
C211        C216   1.423       .  A
C212        H217   1.077       .  S
C212        C213   1.396       .  A
C213        C214   1.400       .  A
C213        O218   1.373       .  S
C214        C215   1.408       .  A
C215        H219   1.083       .  S
C215        C216   1.413       .  A
C216        O220   1.372       .  S
O218        H222   0.992       .  S
O220        H221   0.992       .  S
C223        C224   1.423       .  A
C223        C228   1.423       .  A
C224        H229   1.076       .  S
C224        C225   1.392       .  A
C225        C226   1.401       .  A
C225        O230   1.373       .  S
C226        C227   1.405       .  A
C227        H231   1.083       .  S
C227        C228   1.404       .  A
C228        O232   1.373       .  S
O230        H234   0.992       .  S
O232        H233   0.992       .  S
C235        C236   1.398       .  A
C235        C240   1.383       .  A
C236        H241   1.084       .  S
C236        C237   1.411       .  A
C237        C238   1.431       .  A
C237        O242   1.365       .  S
C238        C239   1.432       .  A
C239        H243   1.078       .  S
C239        C240   1.386       .  A
C240        O244   1.373       .  S
O242        H246   0.993       .  S
O244        H245   0.992       .  S
C247        C248   1.408       .  A
C247        C252   1.398       .  A
C248        H253   1.083       .  S
C248        C249   1.410       .  A
C249        C250   1.422       .  A
C249        O254   1.372       .  S
C250        C251   1.428       .  A
C251        H255   1.075       .  S
C251        C252   1.392       .  A
C252        O256   1.373       .  S
O254        H258   0.992       .  S
O256        H257   0.992       .  S
C259        C260   1.415       .  A
C259        C264   1.426       .  A
C260        H265   1.080       .  S
C260        C261   1.401       .  A
C261        C262   1.410       .  A
C261        O266   1.371       .  S
C262        C263   1.404       .  A
C263        H267   1.083       .  S
C263        C264   1.409       .  A
C264        O268   1.374       .  S
O266        H270   0.992       .  S
O268        H269   0.993       .  S
C271        C272   1.426       .  A
C271        C276   1.419       .  A
C272        H277   1.080       .  S
C272        C273   1.395       .  A
C273        C274   1.397       .  A
C273        O278   1.372       .  S
C274        C275   1.407       .  A
C275        H279   1.084       .  S
C275        C276   1.409       .  A
C276        O280   1.371       .  S
O278        H282   0.992       .  S
O280        H281   0.993       .  S
C283        C284   1.389       .  A
C283        C288   1.408       .  A
C284        H289   1.084       .  S
C284        C285   1.392       .  A
C285        C286   1.433       .  A
C285        O290   1.374       .  S
C286        C287   1.410       .  A
C287        H291   1.081       .  S
C287        C288   1.401       .  A
C288        O292   1.372       .  S
O290        H294   0.992       .  S
O292        H293   0.992       .  S
C295        C296   1.388       .  A
C295        C300   1.407       .  A
C296        H301   1.084       .  S
C296        C297   1.392       .  A
C297        C298   1.435       .  A
C297        O302   1.373       .  S
C298        C299   1.412       .  A
C299        H303   1.077       .  S
C299        C300   1.405       .  A
C300        O304   1.372       .  S
O302        H306   0.992       .  S
O304        H305   0.992       .  S
C307        C308   1.406       .  A
C307        C312   1.399       .  A
C308        H313   1.083       .  S
C308        C309   1.415       .  A
C309        C310   1.426       .  A
C309        O314   1.373       .  S
C310        C311   1.426       .  A
C311        H315   1.076       .  S
C311        C312   1.391       .  A
C312        O316   1.373       .  S
O314        H318   0.992       .  S
O316        H317   0.992       .  S
C319        C320   1.414       .  A
C319        C324   1.427       .  A
C320        H325   1.083       .  S
C320        C321   1.409       .  A
C321        C322   1.411       .  A
C321        O326   1.371       .  S
C322        C323   1.399       .  A
C323        H327   1.084       .  S
C323        C324   1.399       .  A
C324        O328   1.376       .  S
O326        H330   0.991       .  S
O328        H329   0.993       .  S
C331        C332   1.423       .  A
C331        C336   1.420       .  A
C332        H337   1.083       .  S
C332        C333   1.394       .  A
C333        C334   1.396       .  A
C333        O338   1.372       .  S
C334        C335   1.402       .  A
C335        H339   1.084       .  S
C335        C336   1.403       .  A
C336        O340   1.368       .  S
O338        H342   0.992       .  S
O340        H341   0.991       .  S
C343        C344   1.386       .  A
C343        C348   1.403       .  A
C344        H349   1.085       .  S
C344        C345   1.390       .  A
C345        C346   1.447       .  A
C345        O350   1.369       .  S
C346        C347   1.425       .  A
C347        H351   1.082       .  S
C347        C348   1.408       .  A
C348        O352   1.371       .  S
O350        H354   0.992       .  S
O352        H353   0.991       .  S
C355        C356   1.406       .  A
C355        C360   1.391       .  A
C356        H361   1.084       .  S
C356        C357   1.410       .  A
C357        C358   1.416       .  A
C357        O362   1.373       .  S
C358        C359   1.424       .  A
C359        H363   1.082       .  S
C359        C360   1.389       .  A
C360        O364   1.372       .  S
O362        H366   0.993       .  S
O364        H365   0.992       .  S
C367        C368   1.420       .  A
C367        C372   1.444       .  A
C368        H373   1.083       .  S
C368        C369   1.411       .  A
C369        C370   1.408       .  A
C369        O374   1.371       .  S
C370        C371   1.386       .  A
C371        H375   1.085       .  S
C371        C372   1.389       .  A
C372        O376   1.370       .  S
O374        H378   0.992       .  S
O376        H377   0.991       .  S
C379        C380   1.390       .  A
C379        C384   1.406       .  A
C380        H385   1.084       .  S
C380        C381   1.396       .  A
C381        C382   1.430       .  A
C381        O386   1.372       .  S
C382        C383   1.411       .  A
C383        H387   1.079       .  S
C383        C384   1.402       .  A
C384        O388   1.372       .  S
O386        H390   0.992       .  S
O388        H389   0.991       .  S
C391        C392   1.402       .  A
C391        C396   1.413       .  A
C392        H397   1.083       .  S
C392        C393   1.410       .  A
C393        C394   1.427       .  A
C393        O398   1.374       .  S
C394        C395   1.412       .  A
C395        H399   1.082       .  S
C395        C396   1.402       .  A
C396        O400   1.372       .  S
O398        H402   0.992       .  S
O400        H401   0.991       .  S
C403        C404   1.390       .  A
C403        C408   1.410       .  A
C404        H409   1.084       .  S
C404        C405   1.396       .  A
C405        C406   1.434       .  A
C405        O410   1.372       .  S
C406        C407   1.411       .  A
C407        H411   1.079       .  S
C407        C408   1.409       .  A
C408        O412   1.371       .  S
O410        H414   0.992       .  S
O412        H413   0.992       .  S
C415        C416   1.421       .  A
C415        C420   1.424       .  A
C416        H421   1.080       .  S
C416        C417   1.404       .  A
C417        C418   1.406       .  A
C417        O422   1.371       .  S
C418        C419   1.400       .  A
C419        H423   1.084       .  S
C419        C420   1.403       .  A
C420        O424   1.370       .  S
O422        H426   0.992       .  S
O424        H425   0.993       .  S
C427        C428   1.405       .  A
C427        C432   1.395       .  A
C428        H433   1.084       .  S
C428        C429   1.408       .  A
C429        C430   1.419       .  A
C429        O434   1.369       .  S
C430        C431   1.424       .  A
C431        H435   1.084       .  S
C431        C432   1.395       .  A
C432        O436   1.372       .  S
O434        H438   0.991       .  S
O436        H437   0.992       .  S
C439        C440   1.425       .  A
C439        C444   1.419       .  A
C440        H445   1.083       .  S
C440        C441   1.393       .  A
C441        C442   1.395       .  A
C441        O446   1.372       .  S
C442        C443   1.405       .  A
C443        H447   1.084       .  S
C443        C444   1.406       .  A
C444        O448   1.368       .  S
O446        H450   0.992       .  S
O448        H449   0.991       .  S
C451        C452   1.403       .  A
C451        C456   1.399       .  A
C452        H457   1.083       .  S
C452        C453   1.410       .  A
C453        C454   1.426       .  A
C453        O458   1.373       .  S
C454        C455   1.423       .  A
C455        H459   1.076       .  S
C455        C456   1.389       .  A
C456        O460   1.374       .  S
O458        H462   0.992       .  S
O460        H461   0.992       .  S
C463        C464   1.413       .  A
C463        C468   1.424       .  A
C464        H469   1.083       .  S
C464        C465   1.402       .  A
C465        C466   1.413       .  A
C465        O470   1.372       .  S
C466        C467   1.403       .  A
C467        H471   1.083       .  S
C467        C468   1.401       .  A
C468        O472   1.370       .  S
O470        H474   0.992       .  S
O472        H473   0.991       .  S
C475        C476   1.406       .  A
C475        C480   1.392       .  A
C476        H481   1.084       .  S
C476        C477   1.410       .  A
C477        C478   1.418       .  A
C477        O482   1.370       .  S
C478        C479   1.424       .  A
C479        H483   1.083       .  S
C479        C480   1.391       .  A
C480        O484   1.372       .  S
O482        H486   0.992       .  S
O484        H485   0.992       .  S
