geometry optimzed in LAMMPS
_audit_creation_date              2020-12-01 
_audit_creation_method            'lammps2cif' 
_symmetry_space_group_name_H-M    'P1' 
_symmetry_Int_Tables_number       1 
_symmetry_cell_setting            triclinic 
loop_ 
_symmetry_equiv_pos_as_xyz 
  x,y,z 
_cell_length_a                    38.76441832 
_cell_length_b                    33.844780302623455 
_cell_length_c                    34.61069141347911 
_cell_angle_alpha                 90.10773043113758 
_cell_angle_beta                  86.91722165975541 
_cell_angle_gamma                 89.95827930720073 
loop_ 
_atom_site_label 
_atom_site_type_symbol 
_atom_site_fract_x 
_atom_site_fract_y 
_atom_site_fract_z 
_atom_site_charge 
Zn1        Zn  0.03899619  0.99939373  0.03390467     1.49700
Zn2        Zn  0.50207016  0.04771632  0.96974916     1.49400
Zn3        Zn  0.49906579  0.45267777  0.96932780     1.49100
Zn4        Zn  0.45830488  0.00164900  0.03688080     1.49500
O5          O  0.99942946  0.00060411  0.00214384    -1.82900
O6          O  0.07064691  0.04447702  0.02236621    -0.73500
O7          O  0.50346543  0.03333738  0.91310250    -0.73400
O8          O  0.04052289  0.41816147  0.97765301    -0.72900
O9          O  0.04564583  0.07904676  0.97721255    -0.73600
O10         O  0.06801206  0.45256408  0.02106219    -0.73200
O11         O  0.50055000  0.46751961  0.91285908    -0.73700
O12         O  0.42718477  0.45673558  0.02658711    -0.73100
O13         O  0.45912511  0.08118359  0.97927447    -0.73900
O14         O  0.45481472  0.42224467  0.97994080    -0.73300
O15         O  0.42928825  0.04804242  0.02506200    -0.73700
O16         O  0.46886297  0.00142765  0.09369551    -0.73700
O17         O  0.02576266  0.99867668  0.09081465    -0.73400
C18         C  0.07074614  0.07324925  0.99887966     0.78300
C19         C  0.50223645  0.00058324  0.89515018     0.78800
C20         C  0.06633706  0.42320002  0.99840567     0.77800
C21         C  0.42831871  0.42825139  0.00263360     0.78200
C22         C  0.43194172  0.07649405  0.00120469     0.79300
C23         C  0.99733590  0.99973994  0.11089932     0.78400
N24         N  0.30294993  0.25264954  0.98663461    -0.35400
N25         N  0.24862746  0.31210997  0.98846467    -0.56000
N26         N  0.19767668  0.24936146  0.98505391    -0.35400
N27         N  0.25164593  0.18987465  0.98735554    -0.56000
C28         C  0.32154979  0.28528873  0.99416631     0.28200
C29         C  0.32323620  0.22105301  0.99296513     0.28200
C30         C  0.17675113  0.28084225  0.99183516     0.28200
C31         C  0.17830675  0.21671869  0.99214050     0.28200
C32         C  0.27607264  0.33664820  0.98636156     0.36800
C33         C  0.22041465  0.33484332  0.98464220     0.36800
C34         C  0.28031435  0.16723757  0.98361293     0.36800
C35         C  0.22447398  0.16550861  0.98353418     0.36800
C36         C  0.35431035  0.27425312  0.00440959    -0.20700
C37         C  0.35536779  0.23383166  0.00365826    -0.20700
C38         C  0.14360149  0.26802167  0.00241730    -0.20700
C39         C  0.14457591  0.22767135  0.00261513    -0.20700
C40         C  0.26524400  0.37530647  0.98174436    -0.21700
C41         C  0.22988402  0.37415196  0.98060255    -0.21700
C42         C  0.27132368  0.12813682  0.97771393    -0.21700
C43         C  0.23585880  0.12704239  0.97769276    -0.21700
C44         C  0.31055578  0.32493700  0.99080410    -0.17100
C45         C  0.31425863  0.18090418  0.98828558    -0.17100
C46         C  0.18951155  0.17714433  0.98795349    -0.17100
C47         C  0.18609174  0.32096726  0.98764195    -0.17100
H48         H  0.37543530  0.29329193  0.01166548     0.15800
H49         H  0.37744223  0.21594963  0.01024696     0.15800
H50         H  0.12088923  0.28582453  0.00930394     0.15800
H51         H  0.12270298  0.20865174  0.00957342     0.15800
H52         H  0.28111275  0.40160713  0.97992132     0.14100
H53         H  0.21303218  0.39938747  0.97783834     0.14100
H54         H  0.28848424  0.10297001  0.97444066     0.14100
H55         H  0.22022724  0.10089248  0.97437852     0.14100
H56         H  0.27925206  0.25205089  0.97423223     0.27400
H57         H  0.22250449  0.25009399  0.97242914     0.27400
C58         C  0.50563122  0.49926192  0.72800778     0.04500
C59         C  0.50514508  0.46330043  0.70797120    -0.11800
C60         C  0.50512356  0.46283826  0.66750466     0.01800
C61         C  0.50559883  0.49872755  0.64708236    -0.10300
C62         C  0.50602443  0.03503351  0.66706299     0.04300
C63         C  0.50601328  0.03503855  0.70758202    -0.09800
H64         H  0.50467011  0.43571856  0.72385927     0.09900
H65         H  0.50537908  0.49844622  0.61578369     0.07500
H66         H  0.50629036  0.06280861  0.72321592     0.07300
C67         C  0.99829699  0.49739060  0.28001836     0.04300
C68         C  0.99799284  0.03355940  0.29994382    -0.11800
C69         C  0.00030450  0.03445373  0.34020992     0.01800
C70         C  0.00256362  0.49874554  0.36063358    -0.10300
C71         C  0.00279328  0.46233095  0.34091416     0.04300
C72         C  0.00076699  0.46191528  0.30055698    -0.09800
H73         H  0.99634478  0.06098514  0.28402489     0.09900
H74         H  0.00421781  0.49930241  0.39178582     0.07500
H75         H  0.00124011  0.43400862  0.28512251     0.07300
N76         N  0.50339771  0.30933883  0.50447008    -0.35400
N77         N  0.50016164  0.24896423  0.56455497    -0.56000
N78         N  0.50325642  0.18934848  0.50382070    -0.35400
N79         N  0.50347621  0.24976718  0.44406544    -0.56000
C80         C  0.49529826  0.33148005  0.53628426     0.28200
C81         C  0.49791425  0.33210570  0.47326454     0.28200
C82         C  0.49687133  0.16664948  0.53556935     0.28200
C83         C  0.49680202  0.16690981  0.47257422     0.28200
C84         C  0.50445719  0.28102162  0.58710785     0.36800
C85         C  0.50576435  0.21699289  0.58669833     0.36800
C86         C  0.50930064  0.28185175  0.42140719     0.36800
C87         C  0.50774235  0.21766032  0.42098809     0.36800
C88         C  0.48468288  0.36870669  0.52513828    -0.20700
C89         C  0.48634250  0.36911320  0.48546352    -0.20700
C90         C  0.48646174  0.12935776  0.52438686    -0.20700
C91         C  0.48649614  0.12946548  0.48477858    -0.20700
C92         C  0.51203141  0.26941398  0.62407829    -0.21700
C93         C  0.51295161  0.22873906  0.62379340    -0.21700
C94         C  0.51699440  0.27012773  0.38355018    -0.21700
C95         C  0.51588877  0.22941347  0.38325442    -0.21700
C96         C  0.50025153  0.32050236  0.57502446    -0.17100
C97         C  0.50506013  0.32146003  0.43405377    -0.17100
C98         C  0.50226587  0.17812095  0.43323084    -0.17100
C99         C  0.50271161  0.17740970  0.57423041    -0.17100
H100        H  0.47712108  0.39337283  0.54366406     0.15800
H101        H  0.48017061  0.39413170  0.46766454     0.15800
H102        H  0.48003441  0.10434156  0.54283335     0.15800
H103        H  0.48021572  0.10437505  0.46707970     0.15800
H104        H  0.51632841  0.28826545  0.64865134     0.14100
H105        H  0.51802504  0.20997290  0.64813342     0.14100
H106        H  0.52219250  0.28895244  0.35867442     0.14100
H107        H  0.52020406  0.21064866  0.35810274     0.14100
H108        H  0.51619860  0.28240038  0.50407796     0.27400
H109        H  0.51544523  0.21661315  0.50334671     0.27400
C110        C  0.50591169  0.35433444  0.40501600    -0.04100
C111        C  0.03627370  0.37623422  0.39958297    -0.01200
C112        C  0.03532806  0.41183632  0.37835210     0.03700
C113        C  0.00430516  0.42429976  0.36249046    -0.04100
C114        C  0.47402100  0.40133818  0.36672407    -0.01200
C115        C  0.47525182  0.36572159  0.38780342     0.03700
C116        C  0.06791265  0.36403268  0.41667749     0.38400
C117        C  0.44192509  0.41375409  0.35077780     0.38400
C118        C  0.44457631  0.34144636  0.39320885     0.36800
C119        C  0.06618488  0.43585281  0.37309429     0.36800
N120        N  0.42018669  0.32193028  0.39759049    -0.38000
N121        N  0.09079227  0.45504953  0.36891375    -0.38000
N122        N  0.41635434  0.42383949  0.33807983    -0.37500
N123        N  0.09313611  0.35419441  0.43031363    -0.37500
C124        C  0.00080726  0.07306295  0.36090721    -0.04100
C125        C  0.46910043  0.09438531  0.37153504    -0.01200
C126        C  0.46994435  0.13018684  0.39253324     0.03700
C127        C  0.50177966  0.14571125  0.40364291    -0.04100
C128        C  0.03283981  0.12420081  0.39395473    -0.01200
C129        C  0.03244405  0.08909543  0.37187354     0.03700
C130        C  0.43626107  0.07730167  0.36224299     0.38400
C131        C  0.06520646  0.13927556  0.40707498     0.38400
C132        C  0.06459131  0.06932570  0.36040328     0.36800
C133        C  0.43802424  0.15032748  0.40420931     0.36800
N134        N  0.09018901  0.05359185  0.35094015    -0.38000
N135        N  0.41263023  0.16653787  0.41357394    -0.38000
N136        N  0.09099475  0.15134473  0.41763545    -0.37500
N137        N  0.41007162  0.06356975  0.35489485    -0.37500
C138        C  0.50614877  0.07319991  0.64561703    -0.04100
C139        C  0.47731333  0.09886479  0.64927649    -0.01200
C140        C  0.47694080  0.13428042  0.62777100     0.03700
C141        C  0.50544284  0.14439827  0.60266742    -0.04100
C142        C  0.03270951  0.11713705  0.59936658    -0.01200
C143        C  0.03262496  0.08147466  0.62039365     0.03700
C144        C  0.44732712  0.08798857  0.67381190     0.38400
C145        C  0.06210085  0.12712097  0.57349243     0.38400
C146        C  0.06175148  0.05468986  0.61540994     0.36800
C147        C  0.44672753  0.15963183  0.63029074     0.36800
N148        N  0.08498113  0.03336218  0.61104444    -0.38000
N149        N  0.42269658  0.17998883  0.63230877    -0.38000
N150        N  0.08551029  0.13522825  0.55287817    -0.37500
N151        N  0.42335637  0.07936652  0.69334126    -0.37500
C152        C  0.50442290  0.42450208  0.64652059    -0.04100
C153        C  0.03387414  0.40766393  0.62928955    -0.01200
C154        C  0.03336629  0.37215984  0.60797860     0.03700
C155        C  0.50247111  0.35333597  0.60371834    -0.04100
C156        C  0.47256335  0.36684798  0.62477168    -0.01200
C157        C  0.47351541  0.40240681  0.64610611     0.03700
C158        C  0.06619134  0.42848174  0.63313452     0.38400
C159        C  0.44060019  0.34482153  0.62328144     0.38400
C160        C  0.44243598  0.41700737  0.66657672     0.36800
C161        C  0.06497640  0.35694453  0.58912525     0.36800
N162        N  0.41768718  0.42877159  0.68292731    -0.38000
N163        N  0.09011122  0.34467931  0.57400800    -0.38000
N164        N  0.41512878  0.32715450  0.62209568    -0.37500
N165        N  0.09205640  0.44493891  0.63620124    -0.37500
C166        C  0.34256021  0.15139967  0.99097734    -0.04100
C167        C  0.35065295  0.13665340  0.02742578    -0.01200
C168        C  0.38012689  0.11285061  0.03099315     0.03700
C169        C  0.40176589  0.10339171  0.99786690    -0.04100
C170        C  0.39290626  0.11759733  0.96111506    -0.01200
C171        C  0.36364223  0.14186232  0.95788562     0.03700
C172        C  0.32922879  0.14739835  0.06152561     0.38400
C173        C  0.41305790  0.10648188  0.92621943     0.38400
C174        C  0.35543760  0.15776414  0.92055831     0.36800
C175        C  0.38844990  0.09918235  0.06912413     0.36800
N176        N  0.34891827  0.17063251  0.89086426    -0.38000
N177        N  0.39490779  0.08821342  0.09955636    -0.38000
N178        N  0.42901915  0.09778286  0.89827079    -0.37500
N179        N  0.31218416  0.15619702  0.08866038    -0.37500
C180        C  0.09619420  0.39564828  0.99549336    -0.04100
C181        C  0.10907286  0.38139934  0.95897276    -0.01200
C182        C  0.13929707  0.35819907  0.95622065     0.03700
C183        C  0.15732743  0.35008507  0.98957923    -0.04100
C184        C  0.14498138  0.36468999  0.02584227    -0.01200
C185        C  0.11411442  0.38656771  0.02900650     0.03700
C186        C  0.09196735  0.39123498  0.92396953     0.38400
C187        C  0.16362916  0.35601092  0.06009462     0.38400
C188        C  0.10014370  0.39817285  0.06711656     0.36800
C189        C  0.15175115  0.34211977  0.91914300     0.36800
N190        N  0.08895252  0.40718634  0.09753790    -0.38000
N191        N  0.16167676  0.32912906  0.88964751    -0.38000
N192        N  0.17863872  0.34911239  0.08729889    -0.37500
N193        N  0.07842726  0.39890151  0.89593981    -0.37500
C194        C  0.10164005  0.09938268  0.99596935    -0.04100
C195        C  0.11545315  0.11201262  0.95929345    -0.01200
C196        C  0.14535852  0.13570956  0.95656470     0.03700
C197        C  0.16207218  0.14632281  0.99019769    -0.04100
C198        C  0.14901518  0.13302589  0.02667881    -0.01200
C199        C  0.11879252  0.10990065  0.02967448     0.03700
C200        C  0.09946067  0.10014967  0.92412565     0.38400
C201        C  0.16565741  0.14526891  0.06133035     0.38400
C202        C  0.10457640  0.09869296  0.06774808     0.36800
C203        C  0.15845142  0.15038073  0.91923284     0.36800
N204        N  0.09327927  0.08987435  0.09814824    -0.38000
N205        N  0.16890348  0.16231765  0.88955936    -0.38000
N206        N  0.17885894  0.15536253  0.08888069    -0.37500
N207        N  0.08674242  0.09074322  0.89604271    -0.37500
C208        C  0.39715243  0.40301308  0.99971839    -0.04100
C209        C  0.38687654  0.39066623  0.96287280    -0.01200
C210        C  0.35735155  0.36692665  0.95986389     0.03700
C211        C  0.33754260  0.35592564  0.99336916    -0.04100
C212        C  0.34617283  0.37027395  0.02982704    -0.01200
C213        C  0.37607136  0.39340842  0.03317723     0.03700
C214        C  0.40586226  0.40330586  0.92775071     0.38400
C215        C  0.32454972  0.36031366  0.06395142     0.38400
C216        C  0.38546196  0.40607344  0.07130174     0.36800
C217        C  0.34729285  0.35353545  0.92224138     0.36800
N218        N  0.39275717  0.41616711  0.10177286    -0.38000
N219        N  0.33917158  0.34297809  0.89223801    -0.38000
N220        N  0.30710694  0.35245541  0.09103002    -0.37500
N221        N  0.42094718  0.41342575  0.89974083    -0.37500
C222        C  0.99780366  0.49688755  0.23714372    -0.04100
C223        C  0.02922728  0.99585995  0.21465804    -0.01200
C224        C  0.02921159  0.99665106  0.17386266     0.03700
C225        C  0.99732870  0.49857247  0.15465433    -0.04100
C226        C  0.46541443  0.50024380  0.17786638    -0.01200
C227        C  0.46571740  0.50013204  0.21870214     0.03700
C228        C  0.06166144  0.99424091  0.23381074     0.38400
C229        C  0.43214802  0.50213052  0.16061754     0.38400
C230        C  0.43353162  0.50201479  0.24215070     0.36800
C231        C  0.06245983  0.99571444  0.15244627     0.36800
N232        N  0.40796335  0.50352559  0.26096558    -0.38000
N233        N  0.08915389  0.99501943  0.13576795    -0.38000
N234        N  0.40542906  0.50364015  0.14727650    -0.37500
N235        N  0.08741625  0.99295338  0.24919665    -0.37500
C236        C  0.50311307  0.00069571  0.85245037    -0.04100
C237        C  0.47232056  0.50353827  0.83310535    -0.01200
C238        C  0.47311604  0.50317476  0.79234056     0.03700
C239        C  0.50474424  0.99969214  0.77084242    -0.04100
C240        C  0.03396307  0.99281287  0.79006863    -0.01200
C241        C  0.03363635  0.99396209  0.83080904     0.03700
C242        C  0.43955433  0.50679915  0.85517086     0.38400
C243        C  0.06613846  0.98630193  0.76758875     0.38400
C244        C  0.06570669  0.99052367  0.85029203     0.36800
C245        C  0.44121529  0.50599881  0.77243038     0.36800
N246        N  0.09129600  0.98802251  0.86586765    -0.38000
N247        N  0.41581938  0.50813372  0.75644412    -0.38000
N248        N  0.09171519  0.98080611  0.74956992    -0.37500
N249        N  0.41334248  0.50933225  0.87265112    -0.37500
Zn250      Zn  0.03896852  0.49922780  0.03387431     1.49700
Zn251      Zn  0.50212032  0.54765167  0.96967450     1.49400
Zn252      Zn  0.49898037  0.95273032  0.96928035     1.49100
Zn253      Zn  0.45834634  0.50167768  0.03684374     1.49500
O254        O  0.99941459  0.50050472  0.00209408    -1.82900
O255        O  0.07061293  0.54435161  0.02243864    -0.73500
O256        O  0.50360711  0.53317792  0.91304525    -0.73400
O257        O  0.04054070  0.91830698  0.97771972    -0.72900
O258        O  0.04565365  0.57890788  0.97725307    -0.73600
O259        O  0.06797919  0.95265429  0.02122317    -0.73200
O260        O  0.50029665  0.96768484  0.91284551    -0.73700
O261        O  0.42712371  0.95677449  0.02652272    -0.73100
O262        O  0.45914995  0.58111755  0.97909412    -0.73900
O263        O  0.45476387  0.92221948  0.97993673    -0.73300
O264        O  0.42930653  0.54803292  0.02491547    -0.73700
O265        O  0.46890800  0.50160663  0.09365159    -0.73700
O266        O  0.02568015  0.49837262  0.09078112    -0.73400
C267        C  0.07073140  0.57312840  0.99895482     0.78300
C268        C  0.50247899  0.50039642  0.89512547     0.78800
C269        C  0.06630486  0.92329238  0.99856346     0.77800
C270        C  0.42825687  0.92826148  0.00260540     0.78200
C271        C  0.43195847  0.57645128  0.00101730     0.79300
C272        C  0.99724528  0.49967601  0.11084234     0.78400
N273        N  0.30291599  0.75256553  0.98656466    -0.35400
N274        N  0.24854488  0.81204457  0.98887456    -0.56000
N275        N  0.19759217  0.74931744  0.98529510    -0.35400
N276        N  0.25160881  0.68979947  0.98725502    -0.56000
C277        C  0.32154272  0.78517997  0.99410555     0.28200
C278        C  0.32323423  0.72094722  0.99270910     0.28200
C279        C  0.17663010  0.78076686  0.99206738     0.28200
C280        C  0.17821646  0.71664274  0.99216689     0.28200
C281        C  0.27598565  0.83659594  0.98689013     0.36800
C282        C  0.22030717  0.83481911  0.98534500     0.36800
C283        C  0.28026975  0.66715675  0.98341842     0.36800
C284        C  0.22442113  0.66544766  0.98347973     0.36800
C285        C  0.35435413  0.77411403  0.00414582    -0.20700
C286        C  0.35541443  0.73369633  0.00327501    -0.20700
C287        C  0.14344325  0.76789626  0.00239930    -0.20700
C288        C  0.14443935  0.72754601  0.00248078    -0.20700
C289        C  0.26512627  0.87530065  0.98268706    -0.21700
C290        C  0.22975837  0.87416496  0.98165927    -0.21700
C291        C  0.27125960  0.62806737  0.97749438    -0.21700
C292        C  0.23579106  0.62698551  0.97755977    -0.21700
C293        C  0.31051321  0.82484145  0.99099507    -0.17100
C294        C  0.31423098  0.68080344  0.98802503    -0.17100
C295        C  0.18945926  0.67708257  0.98795692    -0.17100
C296        C  0.18598062  0.82091456  0.98814461    -0.17100
H297        H  0.37550042  0.79313263  0.01137870     0.15800
H298        H  0.37751917  0.71579766  0.00971955     0.15800
H299        H  0.12069903  0.78566683  0.00922395     0.15800
H300        H  0.12255337  0.70849035  0.00926406     0.15800
H301        H  0.28098415  0.90161563  0.98103759     0.14100
H302        H  0.21289363  0.89943011  0.97916361     0.14100
H303        H  0.28841140  0.60290042  0.97413998     0.14100
H304        H  0.22014785  0.60084586  0.97423860     0.14100
H305        H  0.27915908  0.75201646  0.97429703     0.27400
H306        H  0.22247450  0.75010125  0.97284398     0.27400
C307        C  0.50552097  0.99934404  0.72803451     0.04500
C308        C  0.50511917  0.96337315  0.70799794    -0.11800
C309        C  0.50520278  0.96289905  0.66751841     0.01800
C310        C  0.50570874  0.99879096  0.64709667    -0.10300
C311        C  0.50601979  0.53497296  0.66704004     0.04300
C312        C  0.50611161  0.53496437  0.70755950    -0.09800
H313        H  0.50462451  0.93579624  0.72389407     0.09900
H314        H  0.50555784  0.99851558  0.61579324     0.07500
H315        H  0.50647136  0.56272766  0.72319696     0.07300
C316        C  0.99853192  0.99742190  0.28004427     0.04300
C317        C  0.99767970  0.53353433  0.29991820    -0.11800
C318        C  0.99991045  0.53443862  0.34019656     0.01800
C319        C  0.00294992  0.99875112  0.36063709    -0.10300
C320        C  0.00308876  0.96233760  0.34091927     0.04300
C321        C  0.00099770  0.96193789  0.30056881    -0.09800
H322        H  0.99603302  0.56095557  0.28399233     0.09900
H323        H  0.00464049  0.99930010  0.39178481     0.07500
H324        H  0.00140665  0.93403516  0.28512906     0.07300
N325        N  0.50327642  0.80933121  0.50450008    -0.35400
N326        N  0.50021762  0.74898781  0.56459637    -0.56000
N327        N  0.50322777  0.68936496  0.50386860    -0.35400
N328        N  0.50329000  0.74975839  0.44411110    -0.56000
C329        C  0.49516057  0.83146633  0.53631410     0.28200
C330        C  0.49775115  0.83208208  0.47329754     0.28200
C331        C  0.49691052  0.66668402  0.53564399     0.28200
C332        C  0.49664183  0.66693000  0.47265767     0.28200
C333        C  0.50451431  0.78106436  0.58712446     0.36800
C334        C  0.50595331  0.71703606  0.58671711     0.36800
C335        C  0.50912134  0.78183337  0.42144294     0.36800
C336        C  0.50749735  0.71764646  0.42103203     0.36800
C337        C  0.48447292  0.86866490  0.52517037    -0.20700
C338        C  0.48612425  0.86906846  0.48549511    -0.20700
C339        C  0.48640529  0.62941147  0.52451313    -0.20700
C340        C  0.48631801  0.62950933  0.48491109    -0.20700
C341        C  0.51222586  0.76948835  0.62406010    -0.21700
C342        C  0.51323684  0.72881451  0.62377457    -0.21700
C343        C  0.51675709  0.77009920  0.38357746    -0.21700
C344        C  0.51560348  0.72938677  0.38328580    -0.21700
C345        C  0.50020663  0.82053028  0.57504365    -0.17100
C346        C  0.50492011  0.82144365  0.43409194    -0.17100
C347        C  0.50201603  0.67811632  0.43329583    -0.17100
C348        C  0.50289108  0.67744166  0.57427543    -0.17100
H349        H  0.47688580  0.89331972  0.54369966     0.15800
H350        H  0.47991340  0.89407165  0.46769501     0.15800
H351        H  0.47999182  0.60441330  0.54298881     0.15800
H352        H  0.47994415  0.60442841  0.46724673     0.15800
H353        H  0.51655654  0.78835942  0.64860954     0.14100
H354        H  0.51841922  0.71006953  0.64809495     0.14100
H355        H  0.52193909  0.78891667  0.35869313     0.14100
H356        H  0.51986577  0.71061567  0.35813047     0.14100
H357        H  0.51613157  0.78242483  0.50409763     0.27400
H358        H  0.51545887  0.71660761  0.50334356     0.27400
C359        C  0.50582325  0.85432540  0.40506653    -0.04100
C360        C  0.03637290  0.87616210  0.39964415    -0.01200
C361        C  0.03548836  0.91181367  0.37848536     0.03700
C362        C  0.00452764  0.92429331  0.36249203    -0.04100
C363        C  0.47400778  0.90140011  0.36678044    -0.01200
C364        C  0.47518133  0.86578018  0.38785942     0.03700
C365        C  0.06799347  0.86383484  0.41670067     0.38400
C366        C  0.44192933  0.91388044  0.35083733     0.38400
C367        C  0.44446255  0.84157891  0.39328790     0.36800
C368        C  0.06634270  0.93586565  0.37345537     0.36800
N369        N  0.42003971  0.82212184  0.39770028    -0.38000
N370        N  0.09095127  0.95508988  0.36948552    -0.38000
N371        N  0.41636992  0.92401334  0.33814562    -0.37500
N372        N  0.09320878  0.85387684  0.43027934    -0.37500
C373        C  0.00039532  0.57304996  0.36089241    -0.04100
C374        C  0.46880237  0.59431803  0.37168796    -0.01200
C375        C  0.46964974  0.63012948  0.39267735     0.03700
C376        C  0.50149265  0.64569213  0.40372050    -0.04100
C377        C  0.03251436  0.62448607  0.39341690    -0.01200
C378        C  0.03208154  0.58939965  0.37130653     0.03700
C379        C  0.43595944  0.57718202  0.36248800     0.38400
C380        C  0.06496961  0.63987625  0.40597402     0.38400
C381        C  0.06423946  0.56994929  0.35926912     0.36800
C382        C  0.43773513  0.65028056  0.40435330     0.36800
N383        N  0.08983616  0.55446168  0.34935009    -0.38000
N384        N  0.41234806  0.66651515  0.41369832    -0.38000
N385        N  0.09082915  0.65220878  0.41607678    -0.37500
N386        N  0.40976361  0.56341182  0.35522015    -0.37500
C387        C  0.50621450  0.57315018  0.64558608    -0.04100
C388        C  0.47756604  0.59906864  0.64952647    -0.01200
C389        C  0.47729146  0.63454574  0.62810555     0.03700
C390        C  0.50566249  0.64442363  0.60271154    -0.04100
C391        C  0.03300329  0.61727642  0.59952399    -0.01200
C392        C  0.03299381  0.58161513  0.62055246     0.03700
C393        C  0.44762147  0.58836647  0.67420568     0.38400
C394        C  0.06237098  0.62732657  0.57364068     0.38400
C395        C  0.06219038  0.55492871  0.61558818     0.36800
C396        C  0.44730521  0.66023367  0.63104322     0.36800
N397        N  0.08548234  0.53369066  0.61121954    -0.38000
N398        N  0.42347407  0.68088260  0.63341705    -0.38000
N399        N  0.08575757  0.63546853  0.55300693    -0.37500
N400        N  0.42366650  0.57988066  0.69382163    -0.37500
C401        C  0.50449694  0.92456001  0.64652046    -0.04100
C402        C  0.03352901  0.90756782  0.62965252    -0.01200
C403        C  0.03304480  0.87212119  0.60824871     0.03700
C404        C  0.50248876  0.85339653  0.60369783    -0.04100
C405        C  0.47266194  0.86678722  0.62498123    -0.01200
C406        C  0.47364185  0.90233950  0.64632715     0.03700
C407        C  0.06586907  0.92825157  0.63379710     0.38400
C408        C  0.44074236  0.84464275  0.62372157     0.38400
C409        C  0.44262408  0.91682189  0.66701087     0.36800
C410        C  0.06468753  0.85691371  0.58946482     0.36800
N411        N  0.41792460  0.92849596  0.68352803    -0.38000
N412        N  0.08984324  0.84466510  0.57438077    -0.38000
N413        N  0.41530467  0.82688352  0.62272227    -0.37500
N414        N  0.09174463  0.94460627  0.63713357    -0.37500
C415        C  0.34252202  0.65127791  0.99071821    -0.04100
C416        C  0.35064752  0.63659741  0.02718250    -0.01200
C417        C  0.38014331  0.61283347  0.03076790     0.03700
C418        C  0.40177724  0.60334360  0.99764695    -0.04100
C419        C  0.39291727  0.61753178  0.96088762    -0.01200
C420        C  0.36361408  0.64173547  0.95763474     0.03700
C421        C  0.32925611  0.64740933  0.06128690     0.38400
C422        C  0.41315409  0.60653529  0.92601587     0.38400
C423        C  0.35539756  0.65760139  0.92029718     0.36800
C424        C  0.38852847  0.59929337  0.06892187     0.36800
N425        N  0.34887067  0.67044213  0.89059428    -0.38000
N426        N  0.39504560  0.58844147  0.09937469    -0.38000
N427        N  0.42919662  0.59796257  0.89808465    -0.37500
N428        N  0.31224436  0.65627042  0.08842651    -0.37500
C429        C  0.09611357  0.89567644  0.99574973    -0.04100
C430        C  0.10909288  0.88146781  0.95925974    -0.01200
C431        C  0.13924682  0.85814929  0.95661144     0.03700
C432        C  0.15719516  0.85001290  0.99002843    -0.04100
C433        C  0.14475021  0.86458973  0.02626702    -0.01200
C434        C  0.11388600  0.88648329  0.02933583     0.03700
C435        C  0.09218886  0.89151309  0.92418100     0.38400
C436        C  0.16328982  0.85587247  0.06058616     0.38400
C437        C  0.09975789  0.89798487  0.06741054     0.36800
C438        C  0.15167344  0.84192024  0.91958788     0.36800
N439        N  0.08843159  0.90689698  0.09780471    -0.38000
N440        N  0.16154714  0.82877710  0.89013918    -0.38000
N441        N  0.17821522  0.84895486  0.08784699    -0.37500
N442        N  0.07881761  0.89937787  0.89609432    -0.37500
C443        C  0.10163042  0.59926905  0.99604076    -0.04100
C444        C  0.11525259  0.61217596  0.95937210    -0.01200
C445        C  0.14515662  0.63586526  0.95660970     0.03700
C446        C  0.16203758  0.64625011  0.99019088    -0.04100
C447        C  0.14915192  0.63274204  0.02665963    -0.01200
C448        C  0.11897005  0.60954795  0.02969499     0.03700
C449        C  0.09906310  0.60063045  0.92422735     0.38400
C450        C  0.16592343  0.64484314  0.06127569     0.38400
C451        C  0.10501322  0.59800880  0.06777728     0.36800
C452        C  0.15806473  0.65079666  0.91930631     0.36800
N453        N  0.09394666  0.58892275  0.09819413    -0.38000
N454        N  0.16837125  0.66294978  0.88966288    -0.38000
N455        N  0.17922257  0.65483225  0.08879857    -0.37500
N456        N  0.08618493  0.59149332  0.89616036    -0.37500
C457        C  0.39708939  0.90300900  0.99973579    -0.04100
C458        C  0.38684992  0.89051520  0.96292239    -0.01200
C459        C  0.35733907  0.86673794  0.95996848     0.03700
C460        C  0.33752592  0.85581144  0.99349872    -0.04100
C461        C  0.34614240  0.87026112  0.02992132    -0.01200
C462        C  0.37597939  0.89351313  0.03320783     0.03700
C463        C  0.40583602  0.90307537  0.92777186     0.38400
C464        C  0.32458033  0.86027299  0.06408424     0.38400
C465        C  0.38523608  0.90647972  0.07128513     0.36800
C466        C  0.34730163  0.85322792  0.92237693     0.36800
N467        N  0.39240471  0.91684585  0.10171465    -0.38000
N468        N  0.33920276  0.84257350  0.89239676    -0.38000
N469        N  0.30719911  0.85237768  0.09119957    -0.37500
N470        N  0.42091553  0.91313782  0.89973783    -0.37500
C471        C  0.99799060  0.99693594  0.23717776    -0.04100
C472        C  0.02906146  0.49594500  0.21465542    -0.01200
C473        C  0.02908029  0.49679846  0.17385552     0.03700
C474        C  0.99744953  0.99861402  0.15470193    -0.04100
C475        C  0.46540886  0.00005592  0.17791779    -0.01200
C476        C  0.46573463  0.99996528  0.21875296     0.03700
C477        C  0.06147830  0.49436246  0.23384533     0.38400
C478        C  0.43213142  0.00191582  0.16069260     0.38400
C479        C  0.43355971  0.00180284  0.24222500     0.36800
C480        C  0.06235251  0.49618127  0.15247888     0.36800
N481        N  0.40799966  0.00327522  0.26105783    -0.38000
N482        N  0.08906698  0.49573990  0.13583641    -0.38000
N483        N  0.40540146  0.00340772  0.14737550    -0.37500
N484        N  0.08721825  0.49308027  0.24926107    -0.37500
C485        C  0.50335243  0.50046586  0.85242383    -0.04100
C486        C  0.47207608  0.00347126  0.83309905    -0.01200
C487        C  0.47291050  0.00308019  0.79232972     0.03700
C488        C  0.50491088  0.49957581  0.77081505    -0.04100
C489        C  0.03409039  0.49252876  0.79005672    -0.01200
C490        C  0.03375220  0.49363463  0.83079740     0.03700
C491        C  0.43927550  0.00651175  0.85512870     0.38400
C492        C  0.06627067  0.48602336  0.76758536     0.38400
C493        C  0.06581283  0.49015623  0.85029358     0.36800
C494        C  0.44102197  0.00572746  0.77237440     0.36800
N495        N  0.09139176  0.48761241  0.86588332    -0.38000
N496        N  0.41563979  0.00774607  0.75634873    -0.38000
N497        N  0.09184829  0.48052369  0.74956977    -0.37500
N498        N  0.41303302  0.00888070  0.87257192    -0.37500
Zn499      Zn  0.53880729  0.99828298  0.03401669     1.49700
Zn500      Zn  0.00202909  0.04769967  0.96915035     1.49400
Zn501      Zn  0.99877043  0.45266616  0.97013546     1.49100
Zn502      Zn  0.95828083  0.00233772  0.03705334     1.49500
O503        O  0.49945376  0.00010501  0.00199932    -1.82900
O504        O  0.57063555  0.04313915  0.02299568    -0.73500
O505        O  0.00294477  0.03250147  0.91274491    -0.73400
O506        O  0.54096362  0.41811291  0.97660585    -0.72900
O507        O  0.54583187  0.07869603  0.97835799    -0.73600
O508        O  0.56779632  0.45174447  0.02108266    -0.73200
O509        O  0.00002665  0.46659012  0.91354788    -0.73700
O510        O  0.92630904  0.45795805  0.02628815    -0.73100
O511        O  0.95945002  0.08144866  0.97851195    -0.73900
O512        O  0.95454493  0.42247603  0.98085649    -0.73300
O513        O  0.93000180  0.04938131  0.02541327    -0.73700
O514        O  0.96903903  0.00163265  0.09388689    -0.73700
O515        O  0.52551756  0.99740520  0.09088899    -0.73400
C516        C  0.57088880  0.07225838  0.99993951     0.78300
C517        C  0.00174340  0.99944934  0.89532090     0.78800
C518        C  0.56646202  0.42276998  0.99792554     0.77800
C519        C  0.92768226  0.42906663  0.00277137     0.78200
C520        C  0.93262848  0.07745030  0.00110002     0.79300
C521        C  0.49705236  0.99910408  0.11084177     0.78400
N522        N  0.80306668  0.25233726  0.98624471    -0.35400
N523        N  0.74861883  0.31150098  0.98834676    -0.56000
N524        N  0.69758393  0.24832139  0.98718593    -0.35400
N525        N  0.75165652  0.18919322  0.98970818    -0.56000
C526        C  0.82198961  0.28516641  0.99202347     0.28200
C527        C  0.82364041  0.22093095  0.99220804     0.28200
C528        C  0.67663100  0.27983607  0.99351850     0.28200
C529        C  0.67826267  0.21570458  0.99461987     0.28200
C530        C  0.77595075  0.33621740  0.98567007     0.36800
C531        C  0.72018595  0.33401404  0.98510612     0.36800
C532        C  0.78036555  0.16663078  0.98621918     0.36800
C533        C  0.72453319  0.16455460  0.98683429     0.36800
C534        C  0.85528979  0.27440283  0.00052328    -0.20700
C535        C  0.85633081  0.23400014  0.00063128    -0.20700
C536        C  0.64348608  0.26704439  0.00423014    -0.20700
C537        C  0.64450770  0.22668443  0.00490088    -0.20700
C538        C  0.76483110  0.37478626  0.98126135    -0.21700
C539        C  0.72942636  0.37337879  0.98080438    -0.21700
C540        C  0.77144827  0.12730420  0.98162195    -0.21700
C541        C  0.73599209  0.12599757  0.98198281    -0.21700
C542        C  0.81065060  0.32474844  0.98920581    -0.17100
C543        C  0.81439556  0.18065202  0.98940362    -0.17100
C544        C  0.68954796  0.17611896  0.99089159    -0.17100
C545        C  0.68590308  0.31993670  0.98869267    -0.17100
H546        H  0.87675417  0.29360363  0.00620768     0.15800
H547        H  0.87875219  0.21632986  0.00639416     0.15800
H548        H  0.62073365  0.28487186  0.01082683     0.15800
H549        H  0.62266462  0.20767409  0.01203141     0.15800
H550        H  0.78055306  0.40118264  0.97901436     0.14100
H551        H  0.71240372  0.39850260  0.97830388     0.14100
H552        H  0.78867120  0.10216128  0.97873095     0.14100
H553        H  0.72042590  0.09967322  0.97947883     0.14100
H554        H  0.77868747  0.25135013  0.97556140     0.27400
H555        H  0.72236495  0.24898039  0.97447925     0.27400
C556        C  0.00350001  0.49743321  0.72828491     0.04500
C557        C  0.00310043  0.46159935  0.70807079    -0.11800
C558        C  0.00325367  0.46137610  0.66762769     0.01800
C559        C  0.00369185  0.49731281  0.64734555    -0.10300
C560        C  0.00372619  0.03350435  0.66739227     0.04300
C561        C  0.00385551  0.03336504  0.70794333    -0.09800
H562        H  0.00266487  0.43392138  0.72380112     0.09900
H563        H  0.00356758  0.49711065  0.61603987     0.07500
H564        H  0.00439090  0.06106974  0.72365890     0.07300
C565        C  0.49745780  0.49874624  0.27992383     0.04300
C566        C  0.49711683  0.03489971  0.29971326    -0.11800
C567        C  0.49940661  0.03589103  0.33996484     0.01800
C568        C  0.50168484  0.50021435  0.36051210    -0.10300
C569        C  0.50184245  0.46375534  0.34083686     0.04300
C570        C  0.49983565  0.46330137  0.30049981    -0.09800
H571        H  0.49561997  0.06228592  0.28370197     0.09900
H572        H  0.50340096  0.50082293  0.39165420     0.07500
H573        H  0.50032146  0.43537845  0.28508959     0.07300
N574        N  0.00353027  0.30795699  0.50451621    -0.35400
N575        N  0.99984565  0.24767661  0.56472153    -0.56000
N576        N  0.00199744  0.18813109  0.50421190    -0.35400
N577        N  0.00292201  0.24835120  0.44428182    -0.56000
C578        C  0.99570551  0.33024054  0.53629570     0.28200
C579        C  0.99816748  0.33073628  0.47328613     0.28200
C580        C  0.99483206  0.16572716  0.53599586     0.28200
C581        C  0.99498262  0.16591832  0.47301666     0.28200
C582        C  0.00472477  0.27970497  0.58710890     0.36800
C583        C  0.00534299  0.21566148  0.58684407     0.36800
C584        C  0.00929064  0.28030298  0.42160051     0.36800
C585        C  0.00743444  0.21613208  0.42141090     0.36800
C586        C  0.98544831  0.36759786  0.52508346    -0.20700
C587        C  0.98699190  0.36790741  0.48542423    -0.20700
C588        C  0.98317458  0.12892105  0.52489477    -0.20700
C589        C  0.98335123  0.12898252  0.48525846    -0.20700
C590        C  0.01263566  0.26805057  0.62396321    -0.21700
C591        C  0.01318777  0.22735553  0.62374497    -0.21700
C592        C  0.01753734  0.26839031  0.38391658    -0.21700
C593        C  0.01630705  0.22766745  0.38377765    -0.21700
C594        C  0.00050868  0.31918815  0.57504978    -0.17100
C595        C  0.00518495  0.31996344  0.43409951    -0.17100
C596        C  0.00142172  0.17672671  0.43373277    -0.17100
C597        C  0.00138085  0.17615376  0.57454601    -0.17100
H598        H  0.97820900  0.39243959  0.54351653     0.15800
H599        H  0.98104257  0.39298393  0.46759599     0.15800
H600        H  0.97594437  0.10421423  0.54341730     0.15800
H601        H  0.97634957  0.10418461  0.46754507     0.15800
H602        H  0.01738675  0.28688526  0.64841659     0.14100
H603        H  0.01833612  0.20855166  0.64803295     0.14100
H604        H  0.02326990  0.28709571  0.35907033     0.14100
H605        H  0.02097269  0.20875522  0.35879030     0.14100
H606        H  0.01601219  0.28081997  0.50415532     0.27400
H607        H  0.01525742  0.21476074  0.50365102     0.27400
C608        C  0.00625571  0.35279527  0.40501486    -0.04100
C609        C  0.53583846  0.37789524  0.39940187    -0.01200
C610        C  0.53469509  0.41342479  0.37808045     0.03700
C611        C  0.50356062  0.42571026  0.36235917    -0.04100
C612        C  0.97457540  0.40025756  0.36700741    -0.01200
C613        C  0.97563035  0.36452353  0.38792006     0.03700
C614        C  0.56762589  0.36581854  0.41624653     0.38400
C615        C  0.94239968  0.41331906  0.35168957     0.38400
C616        C  0.94477965  0.34054749  0.39338132     0.36800
C617        C  0.56552853  0.43740099  0.37229110     0.36800
N618        N  0.92023572  0.32128986  0.39779687    -0.38000
N619        N  0.59010501  0.45656244  0.36756964    -0.38000
N620        N  0.91674823  0.42400030  0.33960576    -0.37500
N621        N  0.59299322  0.35608719  0.42963840    -0.37500
C622        C  0.50016018  0.07458642  0.36044867    -0.04100
C623        C  0.96975929  0.09380260  0.36989822    -0.01200
C624        C  0.97023326  0.12939881  0.39127665     0.03700
C625        C  0.00166664  0.14406801  0.40439488    -0.04100
C626        C  0.53287787  0.12686575  0.39094537    -0.01200
C627        C  0.53206884  0.09180636  0.36882029     0.03700
C628        C  0.93721598  0.07778926  0.35824478     0.38400
C629        C  0.56565549  0.14297331  0.40170333     0.38400
C630        C  0.56404940  0.07332664  0.35458806     0.36800
C631        C  0.93823505  0.15007373  0.40145035     0.36800
N632        N  0.58947355  0.05865155  0.34282380    -0.38000
N633        N  0.91276916  0.16664113  0.40973629    -0.38000
N634        N  0.59177986  0.15589075  0.41035429    -0.37500
N635        N  0.91125129  0.06493476  0.34900395    -0.37500
C636        C  0.00420638  0.07171634  0.64588957    -0.04100
C637        C  0.97625297  0.09853487  0.65075406    -0.01200
C638        C  0.97618956  0.13399424  0.62926648     0.03700
C639        C  0.00406519  0.14296756  0.60284264    -0.04100
C640        C  0.53489878  0.11974451  0.60046478    -0.01200
C641        C  0.53512715  0.08410925  0.62150177     0.03700
C642        C  0.94670464  0.08879438  0.67644186     0.38400
C643        C  0.56476437  0.13081689  0.57578972     0.38400
C644        C  0.56518542  0.05857508  0.61803603     0.36800
C645        C  0.94692784  0.16067424  0.63334347     0.36800
N646        N  0.58924786  0.03834402  0.61493794    -0.38000
N647        N  0.92369124  0.18212289  0.63669067    -0.38000
N648        N  0.58855968  0.13974360  0.55611985    -0.37500
N649        N  0.92306427  0.08109925  0.69687256    -0.37500
C650        C  0.00292896  0.42317325  0.64652433    -0.04100
C651        C  0.53470266  0.40990864  0.62697089    -0.01200
C652        C  0.53371997  0.37442733  0.60567422     0.03700
C653        C  0.00195655  0.35190001  0.60393138    -0.04100
C654        C  0.97125103  0.36646432  0.62259545    -0.01200
C655        C  0.97170135  0.40215794  0.64370270     0.03700
C656        C  0.56692201  0.43138125  0.62875544     0.38400
C657        C  0.93900354  0.34557661  0.61851062     0.38400
C658        C  0.93984143  0.41814030  0.66124708     0.36800
C659        C  0.56471094  0.35986162  0.58497201     0.36800
N660        N  0.91445182  0.43107438  0.67514506    -0.38000
N661        N  0.58934703  0.34804730  0.56843895    -0.38000
N662        N  0.91329820  0.32886841  0.61515317    -0.37500
N663        N  0.59278530  0.44822454  0.63017154    -0.37500
C664        C  0.84281342  0.15139824  0.99196716    -0.04100
C665        C  0.85238626  0.13844115  0.02852271    -0.01200
C666        C  0.88228195  0.11531900  0.03167670     0.03700
C667        C  0.90272243  0.10463431  0.99805405    -0.04100
C668        C  0.89266026  0.11747741  0.96128570    -0.01200
C669        C  0.86283442  0.14085040  0.95840764     0.03700
C670        C  0.83198552  0.15019804  0.06304050     0.38400
C671        C  0.91233354  0.10623230  0.92611480     0.38400
C672        C  0.85281514  0.15466389  0.92093529     0.36800
C673        C  0.89246974  0.10380990  0.06982074     0.36800
N674        N  0.84470502  0.16580017  0.89115612    -0.38000
N675        N  0.90053395  0.09459732  0.10023688    -0.38000
N676        N  0.92794702  0.09766178  0.89789631    -0.37500
N677        N  0.81574714  0.15972123  0.09052479    -0.37500
C678        C  0.59630015  0.39516474  0.99530814    -0.04100
C679        C  0.60950545  0.38088161  0.95893557    -0.01200
C680        C  0.63917979  0.35676206  0.95670266     0.03700
C681        C  0.65706904  0.34894631  0.99023170    -0.04100
C682        C  0.64472194  0.36409902  0.02626111    -0.01200
C683        C  0.61383022  0.38593382  0.02907292     0.03700
C684        C  0.59363162  0.39206763  0.92353750     0.38400
C685        C  0.66339974  0.35607286  0.06064104     0.38400
C686        C  0.59949123  0.39741213  0.06706637     0.36800
C687        C  0.65102356  0.33917767  0.92007398     0.36800
N688        N  0.58798096  0.40629091  0.09739192    -0.38000
N689        N  0.66034942  0.32474359  0.89101967    -0.38000
N690        N  0.67845539  0.34978249  0.08794907    -0.37500
N691        N  0.58125895  0.40106814  0.89515297    -0.37500
C692        C  0.60191108  0.09809551  0.99750383    -0.04100
C693        C  0.61652737  0.11008400  0.96100607    -0.01200
C694        C  0.64618327  0.13417875  0.95878480     0.03700
C695        C  0.66218797  0.14520708  0.99276470    -0.04100
C696        C  0.64874787  0.13179656  0.02904469    -0.01200
C697        C  0.61840370  0.10886700  0.03154557     0.03700
C698        C  0.60173380  0.09693250  0.92555961     0.38400
C699        C  0.66531621  0.14337508  0.06393739     0.38400
C700        C  0.60335098  0.09810909  0.06938326     0.36800
C701        C  0.65976302  0.14874025  0.92160773     0.36800
N702        N  0.59129445  0.08967982  0.09956353    -0.38000
N703        N  0.67056577  0.16062163  0.89205214    -0.38000
N704        N  0.67855792  0.15273898  0.09169841    -0.37500
N705        N  0.59006878  0.08640430  0.89723000    -0.37500
C706        C  0.89653502  0.40384301  0.99939422    -0.04100
C707        C  0.88691595  0.39109713  0.96239882    -0.01200
C708        C  0.85734985  0.36748851  0.95891666     0.03700
C709        C  0.83743798  0.35597403  0.99218491    -0.04100
C710        C  0.84599669  0.36977041  0.02889781    -0.01200
C711        C  0.87519334  0.39400977  0.03255526     0.03700
C712        C  0.90687991  0.40279935  0.92759170     0.38400
C713        C  0.82544415  0.35748055  0.06306125     0.38400
C714        C  0.88360514  0.40762083  0.07070638     0.36800
C715        C  0.84755672  0.35445560  0.92107655     0.36800
N716        N  0.89001323  0.41860412  0.10118655    -0.38000
N717        N  0.83966847  0.34423424  0.89087356    -0.38000
N718        N  0.80906145  0.34739917  0.09019861    -0.37500
N719        N  0.92287261  0.41197580  0.89985532    -0.37500
C720        C  0.49712412  0.49811126  0.23708027    -0.04100
C721        C  0.52845732  0.99592996  0.21478704    -0.01200
C722        C  0.52862376  0.99615303  0.17398613     0.03700
C723        C  0.49699275  0.49859163  0.15461013    -0.04100
C724        C  0.96582164  0.49913017  0.17808548    -0.01200
C725        C  0.96628433  0.49814319  0.21891494     0.03700
C726        C  0.56077050  0.99394641  0.23415686     0.38400
C727        C  0.93247433  0.50099341  0.16101900     0.38400
C728        C  0.93414555  0.49824436  0.24251250     0.36800
C729        C  0.56193512  0.99431276  0.15276390     0.36800
N730        N  0.90861293  0.49822250  0.26144847    -0.38000
N731        N  0.58869186  0.99292042  0.13626673    -0.38000
N732        N  0.90570297  0.50260337  0.14780778    -0.37500
N733        N  0.58641265  0.99238820  0.24974083    -0.37500
C734        C  0.00214538  0.99887225  0.85266261    -0.04100
C735        C  0.97108753  0.50228235  0.83369266    -0.01200
C736        C  0.97152478  0.50203578  0.79294066     0.03700
C737        C  0.00291981  0.99767316  0.77110848    -0.04100
C738        C  0.53576511  0.99675764  0.79017241    -0.01200
C739        C  0.53497097  0.99754585  0.83094720     0.03700
C740        C  0.93853234  0.50582802  0.85613684     0.38400
C741        C  0.56843432  0.99282244  0.76801993     0.38400
C742        C  0.56691742  0.99534948  0.85082136     0.36800
C743        C  0.93949388  0.50574071  0.77341154     0.36800
N744        N  0.59241641  0.99373953  0.86667194    -0.38000
N745        N  0.91395962  0.50852777  0.75777583    -0.38000
N746        N  0.59443885  0.98955879  0.75025458    -0.37500
N747        N  0.91249106  0.50842201  0.87394698    -0.37500
Zn748      Zn  0.53887572  0.49834385  0.03400872     1.49700
Zn749      Zn  0.00210493  0.54753725  0.96902226     1.49400
Zn750      Zn  0.99881306  0.95282432  0.97009637     1.49100
Zn751      Zn  0.95822668  0.50240986  0.03692913     1.49500
O752        O  0.49951521  0.50009810  0.00198662    -1.82900
O753        O  0.57072128  0.54320715  0.02297615    -0.73500
O754        O  0.00321692  0.53222661  0.91265168    -0.73400
O755        O  0.54097063  0.91822674  0.97641370    -0.72900
O756        O  0.54586609  0.57863991  0.97828232    -0.73600
O757        O  0.56772910  0.95169391  0.02106853    -0.73200
O758        O  0.00013003  0.96684048  0.91351578    -0.73700
O759        O  0.92645113  0.95783417  0.02645570    -0.73100
O760        O  0.95950117  0.58131486  0.97807595    -0.73900
O761        O  0.95457169  0.92260446  0.98072932    -0.73300
O762        O  0.93003720  0.54949521  0.02513116    -0.73700
O763        O  0.96896836  0.50179565  0.09380190    -0.73700
O764        O  0.52555864  0.49747479  0.09087352    -0.73400
C765        C  0.57094836  0.57226461  0.99984543     0.78300
C766        C  0.00184451  0.49915431  0.89529297     0.78800
C767        C  0.56644013  0.92281283  0.99779561     0.77800
C768        C  0.92779030  0.92905060  0.00281876     0.78200
C769        C  0.93267858  0.57744214  0.00068114     0.79300
C770        C  0.49708880  0.49925680  0.11081136     0.78400
N771        N  0.80313017  0.75237749  0.98610595    -0.35400
N772        N  0.74865398  0.81160532  0.98831883    -0.56000
N773        N  0.69759325  0.74841161  0.98628871    -0.35400
N774        N  0.75169898  0.68920722  0.98884228    -0.56000
C775        C  0.82219709  0.78517466  0.99143893     0.28200
C776        C  0.82385954  0.72091589  0.99115802     0.28200
C777        C  0.67664005  0.77990905  0.99272337     0.28200
C778        C  0.67826606  0.71576255  0.99354288     0.28200
C779        C  0.77598571  0.83634877  0.98626562     0.36800
C780        C  0.72023312  0.83417771  0.98525990     0.36800
C781        C  0.78040461  0.66660671  0.98569231     0.36800
C782        C  0.72456708  0.66456832  0.98605391     0.36800
C783        C  0.85577409  0.77434114  0.99869831    -0.20700
C784        C  0.85682136  0.73393544  0.99851756    -0.20700
C785        C  0.64346769  0.76707419  0.00323993    -0.20700
C786        C  0.64448663  0.72671452  0.00374073    -0.20700
C787        C  0.76486066  0.87499863  0.98246675    -0.21700
C788        C  0.72947367  0.87361150  0.98170918    -0.21700
C789        C  0.77146308  0.62724932  0.98136958    -0.21700
C790        C  0.73601317  0.62596785  0.98156049    -0.21700
C791        C  0.81072783  0.82479258  0.98943924    -0.17100
C792        C  0.81447656  0.68063256  0.98868154    -0.17100
C793        C  0.68957594  0.67616573  0.98992165    -0.17100
C794        C  0.68594250  0.82005540  0.98833034    -0.17100
H795        H  0.87742009  0.79349316  0.00376680     0.15800
H796        H  0.87942795  0.71623263  0.00341083     0.15800
H797        H  0.62071304  0.78487626  0.00990379     0.15800
H798        H  0.62263597  0.70768636  0.01077815     0.15800
H799        H  0.78057150  0.90142521  0.98071821     0.14100
H800        H  0.71246063  0.89878427  0.97949185     0.14100
H801        H  0.78866673  0.60207244  0.97872001     0.14100
H802        H  0.72044083  0.59963086  0.97918840     0.14100
H803        H  0.77836112  0.75146421  0.97656257     0.27400
H804        H  0.72238335  0.74912606  0.97360591     0.27400
C805        C  0.00332358  0.99758146  0.72831280     0.04500
C806        C  0.00284428  0.96170007  0.70818305    -0.11800
C807        C  0.00284533  0.96139024  0.66775000     0.01800
C808        C  0.00321063  0.99728614  0.64739685    -0.10300
C809        C  0.00411457  0.53348763  0.66742147     0.04300
C810        C  0.00409192  0.53326296  0.70798591    -0.09800
H811        H  0.00246106  0.93405690  0.72396979     0.09900
H812        H  0.00299714  0.99701820  0.61609747     0.07500
H813        H  0.00455753  0.56093472  0.72376355     0.07300
C814        C  0.49752504  0.99870719  0.27994545     0.04300
C815        C  0.49692265  0.53492198  0.29973084    -0.11800
C816        C  0.49913893  0.53588753  0.33999419     0.01800
C817        C  0.50190166  0.00023017  0.36051268    -0.10300
C818        C  0.50193179  0.96375399  0.34087688     0.04300
C819        C  0.49985099  0.96327282  0.30054853    -0.09800
H820        H  0.49539527  0.56231770  0.28374045     0.09900
H821        H  0.50365702  0.00086161  0.39164939     0.07500
H822        H  0.50024399  0.93533600  0.28516487     0.07300
N823        N  0.00341427  0.80798027  0.50454410    -0.35400
N824        N  0.99976984  0.74769107  0.56477433    -0.56000
N825        N  0.00200050  0.68808772  0.50427335    -0.35400
N826        N  0.00278929  0.74832027  0.44432047    -0.56000
C827        C  0.99562730  0.83030980  0.53630483     0.28200
C828        C  0.99819815  0.83077920  0.47328728     0.28200
C829        C  0.99503243  0.66564831  0.53607930     0.28200
C830        C  0.99501156  0.66582038  0.47310012     0.28200
C831        C  0.00444085  0.77975021  0.58719406     0.36800
C832        C  0.00526636  0.71570251  0.58693928     0.36800
C833        C  0.00912824  0.78026101  0.42160988     0.36800
C834        C  0.00716742  0.71608935  0.42143541     0.36800
C835        C  0.98556130  0.86772533  0.52504846    -0.20700
C836        C  0.98717703  0.86801950  0.48538928    -0.20700
C837        C  0.98356027  0.62875119  0.52501313    -0.20700
C838        C  0.98363013  0.62880012  0.48538651    -0.20700
C839        C  0.01219508  0.76813482  0.62411099    -0.21700
C840        C  0.01288807  0.72744571  0.62389733    -0.21700
C841        C  0.01721766  0.76832828  0.38389886    -0.21700
C842        C  0.01590677  0.72761288  0.38376631    -0.21700
C843        C  0.00025783  0.81923369  0.57509550    -0.17100
C844        C  0.00516182  0.81994381  0.43410345    -0.17100
C845        C  0.00121388  0.67667423  0.43378344    -0.17100
C846        C  0.00151857  0.67615912  0.57463144    -0.17100
H847        H  0.97839211  0.89261173  0.54345370     0.15800
H848        H  0.98135731  0.89312387  0.46753731     0.15800
H849        H  0.97649633  0.60400132  0.54355153     0.15800
H850        H  0.97671455  0.60393710  0.46771383     0.15800
H851        H  0.01677452  0.78699217  0.64859896     0.14100
H852        H  0.01798287  0.70867605  0.64822734     0.14100
H853        H  0.02289980  0.78701785  0.35902935     0.14100
H854        H  0.02045980  0.70869731  0.35876225     0.14100
H855        H  0.01575969  0.78076865  0.50421303     0.27400
H856        H  0.01508925  0.71482219  0.50368025     0.27400
C857        C  0.00632550  0.85276125  0.40499716    -0.04100
C858        C  0.53578229  0.87783608  0.39947658    -0.01200
C859        C  0.53468901  0.91338827  0.37818589     0.03700
C860        C  0.50358277  0.92572035  0.36242941    -0.04100
C861        C  0.97478896  0.90024301  0.36686079    -0.01200
C862        C  0.97575780  0.86451995  0.38780265     0.03700
C863        C  0.56755357  0.86567949  0.41630854     0.38400
C864        C  0.94268564  0.91328029  0.35135223     0.38400
C865        C  0.94487873  0.84057762  0.39317063     0.36800
C866        C  0.56554116  0.93734866  0.37248368     0.36800
N867        N  0.92030990  0.82134912  0.39750914    -0.38000
N868        N  0.59013055  0.95650355  0.36784665    -0.38000
N869        N  0.91709551  0.92393431  0.33910126    -0.37500
N870        N  0.59290925  0.85588081  0.42968394    -0.37500
C871        C  0.49986792  0.57457256  0.36050809    -0.04100
C872        C  0.96929332  0.59347117  0.37043475    -0.01200
C873        C  0.96979303  0.62907906  0.39179667     0.03700
C874        C  0.00131283  0.64403456  0.40441738    -0.04100
C875        C  0.53258868  0.62690578  0.39092159    -0.01200
C876        C  0.53177533  0.59185295  0.36878807     0.03700
C877        C  0.93669329  0.57713179  0.35933873     0.38400
C878        C  0.56537614  0.64309461  0.40154636     0.38400
C879        C  0.56375343  0.57344390  0.35444772     0.36800
C880        C  0.93776243  0.64948865  0.40243687     0.36800
N881        N  0.58917407  0.55882524  0.34259643    -0.38000
N882        N  0.91227153  0.66584861  0.41108177    -0.38000
N883        N  0.59150749  0.65608739  0.41008184    -0.37500
N884        N  0.91068343  0.56401389  0.35054939    -0.37500
C885        C  0.00456260  0.57173947  0.64598473    -0.04100
C886        C  0.97651568  0.59843619  0.65077932    -0.01200
C887        C  0.97639696  0.63391632  0.62932853     0.03700
C888        C  0.00428543  0.64300667  0.60296083    -0.04100
C889        C  0.53493778  0.61949181  0.60019272    -0.01200
C890        C  0.53508729  0.58382914  0.62119444     0.03700
C891        C  0.94690228  0.58850483  0.67629499     0.38400
C892        C  0.56469154  0.63030112  0.57522108     0.38400
C893        C  0.56494127  0.55800897  0.61736676     0.36800
C894        C  0.94705204  0.66047984  0.63335988     0.36800
N895        N  0.58883024  0.53753954  0.61395883    -0.38000
N896        N  0.92375054  0.68183925  0.63667403    -0.38000
N897        N  0.58839919  0.63900472  0.55531146    -0.37500
N898        N  0.92320425  0.58063414  0.69656958    -0.37500
C899        C  0.00254247  0.92314745  0.64671227    -0.04100
C900        C  0.53469911  0.91011026  0.62669353    -0.01200
C901        C  0.53368995  0.87462736  0.60539959     0.03700
C902        C  0.00162449  0.85194393  0.60399829    -0.04100
C903        C  0.97087325  0.86655126  0.62253053    -0.01200
C904        C  0.97130059  0.90220383  0.64371264     0.03700
C905        C  0.56686854  0.93173028  0.62817917     0.38400
C906        C  0.93860999  0.84576504  0.61821951     0.38400
C907        C  0.93942025  0.91818644  0.66120395     0.36800
C908        C  0.56460119  0.86019783  0.58443749     0.36800
N909        N  0.91401515  0.93110627  0.67507744    -0.38000
N910        N  0.58916809  0.84848552  0.56769238    -0.38000
N911        N  0.91289046  0.82914421  0.61467330    -0.37500
N912        N  0.59269796  0.94868634  0.62933492    -0.37500
C913        C  0.84286057  0.65134152  0.99132732    -0.04100
C914        C  0.85257254  0.63870559  0.02793809    -0.01200
C915        C  0.88246443  0.61559028  0.03114348     0.03700
C916        C  0.90279262  0.60463569  0.99753003    -0.04100
C917        C  0.89262791  0.61720855  0.96071313    -0.01200
C918        C  0.86276964  0.64052083  0.95777343     0.03700
C919        C  0.83231152  0.65076607  0.06245065     0.38400
C920        C  0.91224726  0.60578412  0.92556634     0.38400
C921        C  0.85261612  0.65403066  0.92024922     0.36800
C922        C  0.89277475  0.60436446  0.06932064     0.36800
N923        N  0.84438459  0.66493517  0.89043720    -0.38000
N924        N  0.90094543  0.59536450  0.09975584    -0.38000
N925        N  0.92781408  0.59709494  0.89735331    -0.37500
N926        N  0.81618983  0.66052284  0.08993629    -0.37500
C927        C  0.59630546  0.89524521  0.99511284    -0.04100
C928        C  0.60962404  0.88122050  0.95869042    -0.01200
C929        C  0.63930537  0.85711073  0.95640590     0.03700
C930        C  0.65710071  0.84906424  0.98995231    -0.04100
C931        C  0.64465666  0.86399084  0.02603732    -0.01200
C932        C  0.61375703  0.88581354  0.02888090     0.03700
C933        C  0.59387731  0.89270068  0.92330340     0.38400
C934        C  0.66324643  0.85574376  0.06043174     0.38400
C935        C  0.59934086  0.89708789  0.06689973     0.36800
C936        C  0.65125656  0.83978273  0.91969720     0.36800
N937        N  0.58778078  0.90580150  0.09725044    -0.38000
N938        N  0.66066430  0.82555303  0.89057369    -0.38000
N939        N  0.67824181  0.84927540  0.08774482    -0.37500
N940        N  0.58161183  0.90195329  0.89493158    -0.37500
C941        C  0.60199226  0.59806506  0.99721157    -0.04100
C942        C  0.61651244  0.60986406  0.96060823    -0.01200
C943        C  0.64613604  0.63400384  0.95815919     0.03700
C944        C  0.66222977  0.64523343  0.99201972    -0.04100
C945        C  0.64891868  0.63196088  0.02840544    -0.01200
C946        C  0.61860038  0.60898999  0.03113148     0.03700
C947        C  0.60167623  0.59641665  0.92528671     0.38400
C948        C  0.66560223  0.64372077  0.06316880     0.38400
C949        C  0.60371991  0.59831677  0.06906744     0.36800
C950        C  0.65959037  0.64838589  0.92086523     0.36800
N951        N  0.59182250  0.58995654  0.09933779    -0.38000
N952        N  0.67027737  0.66011268  0.89120248    -0.38000
N953        N  0.67894999  0.65323923  0.09081279    -0.37500
N954        N  0.58997160  0.58562011  0.89707321    -0.37500
C955        C  0.89667700  0.90379091  0.99954249    -0.04100
C956        C  0.88661553  0.89164767  0.96254204    -0.01200
C957        C  0.85701532  0.86808076  0.95915361     0.03700
C958        C  0.83753590  0.85597855  0.99252310    -0.04100
C959        C  0.84659278  0.86910403  0.02929586    -0.01200
C960        C  0.87580096  0.89334622  0.03286141     0.03700
C961        C  0.90617380  0.90391959  0.92766098     0.38400
C962        C  0.82655978  0.85612593  0.06357166     0.38400
C963        C  0.88473337  0.90633737  0.07104217     0.36800
C964        C  0.84677895  0.85562579  0.92130308     0.36800
N965        N  0.89158177  0.91684507  0.10153623    -0.38000
N966        N  0.83852925  0.84583721  0.89110690    -0.38000
N967        N  0.81060992  0.84549967  0.09081002    -0.37500
N968        N  0.92184422  0.91353942  0.89985693    -0.37500
C969        C  0.49715710  0.99803769  0.23710704    -0.04100
C970        C  0.52843476  0.49597527  0.21477872    -0.01200
C971        C  0.52862964  0.49634734  0.17397667     0.03700
C972        C  0.49697575  0.99840007  0.15464011    -0.04100
C973        C  0.96596140  0.99934306  0.17816313    -0.01200
C974        C  0.96645608  0.99834038  0.21898823     0.03700
C975        C  0.56072897  0.49378244  0.23416478     0.38400
C976        C  0.93260444  0.00139530  0.16113226     0.38400
C977        C  0.93433591  0.99859129  0.24261856     0.36800
C978        C  0.56196004  0.49473549  0.15277425     0.36800
N979        N  0.90881413  0.99868867  0.26157392    -0.38000
N980        N  0.58872941  0.49354989  0.13628799    -0.38000
N981        N  0.90582909  0.00313477  0.14794307    -0.37500
N982        N  0.58636076  0.49202828  0.24975062    -0.37500
C983        C  0.00225464  0.49850935  0.85264033    -0.04100
C984        C  0.97098094  0.00270840  0.83371710    -0.01200
C985        C  0.97140685  0.00239491  0.79296718     0.03700
C986        C  0.00305418  0.49741541  0.77108591    -0.04100
C987        C  0.53592806  0.49630186  0.79010813    -0.01200
C988        C  0.53517097  0.49700625  0.83088709     0.03700
C989        C  0.93843427  0.00638660  0.85615211     0.38400
C990        C  0.56855100  0.49210659  0.76791269     0.38400
C991        C  0.56711396  0.49441290  0.85072494     0.36800
C992        C  0.93937784  0.00613053  0.77343636     0.36800
N993        N  0.59261666  0.49247888  0.86653722    -0.38000
N994        N  0.91385520  0.00894062  0.75778204    -0.38000
N995        N  0.59451534  0.48863820  0.75010859    -0.37500
N996        N  0.91238693  0.00909789  0.87393203    -0.37500
loop_ 
_geom_bond_atom_site_label_1 
_geom_bond_atom_site_label_2 
_geom_bond_distance 
_geom_bond_site_symmetry_2 
_ccdc_geom_bond_type 
Zn1           O5   1.935   1_465  S
Zn1           O6   1.986   1_565  S
Zn1          O17   2.009       .  S
Zn1         O259   1.975       .  S
Zn2         O503   1.962   1_556  S
Zn2           O7   2.017       .  S
Zn2          O13   2.025       .  S
Zn2         O507   2.030       .  S
Zn3         O752   1.962   1_556  S
Zn3          O11   2.017       .  S
Zn3          O14   2.019       .  S
Zn3         O506   2.028       .  S
Zn4         O503   1.949       .  S
Zn4          O15   1.987       .  S
Zn4          O16   2.030       .  S
Zn4         O261   1.986   1_545  S
O5         Zn500   1.962   1_654  S
O5         Zn750   1.960   1_544  S
O5         Zn502   1.949       .  S
O6           C18   1.270   1_554  A
O7           C19   1.272       .  A
O8         Zn501   2.024   1_455  S
O8           C20   1.274       .  A
O9         Zn500   2.028       .  S
O9           C18   1.275       .  A
O10        Zn250   1.975       .  S
O10          C20   1.269   1_554  A
O11         C268   1.272       .  A
O12        Zn253   1.986       .  S
O12          C21   1.270       .  A
O13          C22   1.275   1_556  A
O14          C21   1.275   1_556  A
O15          C22   1.270       .  A
O16         C521   1.274   1_545  A
O17          C23   1.271   1_455  A
C18         C194   1.488       .  S
C19         O260   1.272   1_545  A
C19         C236   1.476       .  S
C20         C180   1.485       .  S
C21         C208   1.488   1_554  S
C22         C169   1.491   1_554  S
C23         O514   1.274   1_565  A
C23         C474   1.517       .  S
N24          C29   1.352       .  A
N24          C28   1.352       .  A
N24          H56   1.035       .  S
N25          C32   1.349       .  A
N25          C33   1.349       .  A
N26          C31   1.352       .  A
N26          C30   1.351       .  A
N26          H57   1.036       .  S
N27          C34   1.350       .  A
N27          C35   1.350       .  A
C28          C36   1.388   1_556  A
C28          C44   1.415       .  A
C29          C45   1.414       .  A
C29          C37   1.388   1_556  A
C30          C38   1.387   1_556  A
C30          C47   1.411       .  A
C31          C46   1.413       .  A
C31          C39   1.388   1_556  A
C32          C44   1.410       .  A
C32          C40   1.386       .  A
C33          C47   1.410       .  A
C33          C41   1.386       .  A
C34          C42   1.386       .  A
C34          C45   1.412       .  A
C35          C43   1.385       .  A
C35          C46   1.411       .  A
C36          C37   1.369       .  A
C36          H48   1.082       .  S
C37          H49   1.082       .  S
C38          C39   1.366       .  A
C38          H50   1.082       .  S
C39          H51   1.082       .  S
C40          C41   1.374       .  A
C40          H52   1.082       .  S
C41          H53   1.082       .  S
C42          C43   1.375       .  A
C42          H54   1.082       .  S
C43          H55   1.082       .  S
C44         C211   1.488       .  S
C45         C166   1.490       .  S
C46         C197   1.490       .  S
C47         C183   1.486       .  S
C58         C488   1.480       .  S
C58          C59   1.400       .  A
C58         C312   1.401       .  A
C59          C60   1.401       .  A
C59          H64   1.084       .  S
C60         C152   1.487       .  S
C60          C61   1.406       .  A
C61         C311   1.407       .  A
C61          H65   1.084       .  S
C62         C138   1.491       .  S
C62          C63   1.402       .  A
C62         C310   1.407   1_545  A
C63         C307   1.401   1_545  A
C63          H66   1.084       .  S
C67         C222   1.485       .  S
C67          C72   1.402   1_655  A
C67         C317   1.402       .  A
C68          C69   1.402   1_655  A
C68         C316   1.402   1_545  A
C68          H73   1.084       .  S
C69         C124   1.490       .  S
C69         C319   1.408   1_545  A
C70          C71   1.407       .  A
C70         C318   1.408   1_455  A
C70          H74   1.084       .  S
C71         C113   1.492       .  S
C71          C72   1.403       .  A
C72          H75   1.084       .  S
N76          C81   1.354       .  A
N76          C80   1.353       .  A
N76         H108   1.037       .  S
N77          C84   1.351       .  A
N77          C85   1.351       .  A
N78          C83   1.355       .  A
N78          C82   1.354       .  A
N78         H109   1.037       .  S
N79          C86   1.353       .  A
N79          C87   1.352       .  A
C80          C88   1.387       .  A
C80          C96   1.415       .  A
C81          C97   1.416       .  A
C81          C89   1.387       .  A
C82          C90   1.386       .  A
C82          C99   1.416       .  A
C83          C98   1.419       .  A
C83          C91   1.389       .  A
C84          C96   1.413       .  A
C84          C92   1.386       .  A
C85          C99   1.414       .  A
C85          C93   1.386       .  A
C86          C94   1.385       .  A
C86          C97   1.416       .  A
C87          C95   1.386       .  A
C87          C98   1.417       .  A
C88          C89   1.371       .  A
C88         H100   1.082       .  S
C89         H101   1.082       .  S
C90          C91   1.371       .  A
C90         H102   1.082       .  S
C91         H103   1.082       .  S
C92          C93   1.377       .  A
C92         H104   1.082       .  S
C93         H105   1.082       .  S
C94          C95   1.379       .  A
C94         H106   1.082       .  S
C95         H107   1.082       .  S
C96         C155   1.495       .  S
C97         C110   1.500       .  S
C98         C127   1.500       .  S
C99         C141   1.498       .  S
C110        C115   1.412       .  A
C110        C609   1.413       .  A
C111        C112   1.414       .  A
C111        C608   1.413       .  A
C111        C116   1.450       .  S
C112        C113   1.413       .  A
C112        C119   1.450       .  S
C113        C612   1.413   1_455  A
C114        C115   1.412       .  A
C114        C611   1.413       .  A
C114        C117   1.450       .  S
C115        C118   1.450       .  S
C116        N123   1.157       .  T
C117        N122   1.157       .  T
C118        N120   1.157       .  T
C119        N121   1.157       .  T
C124        C129   1.412       .  A
C124        C623   1.413   1_455  A
C125        C126   1.413       .  A
C125        C622   1.412       .  A
C125        C130   1.450       .  S
C126        C127   1.414       .  A
C126        C133   1.450       .  S
C127        C626   1.412       .  A
C128        C129   1.412       .  A
C128        C625   1.412       .  A
C128        C131   1.450       .  S
C129        C132   1.450       .  S
C130        N137   1.157       .  T
C131        N136   1.157       .  T
C132        N134   1.157       .  T
C133        N135   1.157       .  T
C138        C139   1.415       .  A
C138        C641   1.413       .  A
C139        C140   1.413       .  A
C139        C144   1.450       .  S
C140        C141   1.411       .  A
C140        C147   1.450       .  S
C141        C640   1.412       .  A
C142        C143   1.411       .  A
C142        C639   1.413       .  A
C142        C145   1.451       .  S
C143        C636   1.414       .  A
C143        C146   1.450       .  S
C144        N151   1.157       .  T
C145        N150   1.157       .  T
C146        N148   1.157       .  T
C147        N149   1.157       .  T
C152        C157   1.414       .  A
C152        C651   1.411       .  A
C153        C154   1.409       .  A
C153        C650   1.411       .  A
C153        C158   1.450       .  S
C154        C653   1.411       .  A
C154        C161   1.451       .  S
C155        C156   1.411       .  A
C155        C652   1.411       .  A
C156        C157   1.412       .  A
C156        C159   1.450       .  S
C157        C160   1.450       .  S
C158        N165   1.157       .  T
C159        N164   1.157       .  T
C160        N162   1.157       .  T
C161        N163   1.157       .  T
C166        C167   1.408   1_556  A
C166        C171   1.408       .  A
C167        C168   1.408       .  A
C167        C172   1.452       .  S
C168        C169   1.420   1_554  A
C168        C175   1.452       .  S
C169        C170   1.420       .  A
C170        C171   1.409       .  A
C170        C173   1.451       .  S
C171        C174   1.451       .  S
C172        N179   1.157       .  T
C173        N178   1.157       .  T
C174        N176   1.157       .  T
C175        N177   1.157       .  T
C180        C181   1.417       .  A
C180        C185   1.418   1_556  A
C181        C182   1.409       .  A
C181        C186   1.451       .  S
C182        C183   1.409       .  A
C182        C189   1.451       .  S
C183        C184   1.408   1_556  A
C184        C185   1.406       .  A
C184        C187   1.452       .  S
C185        C188   1.452       .  S
C186        N193   1.157       .  T
C187        N192   1.157       .  T
C188        N190   1.157       .  T
C189        N191   1.157       .  T
C194        C195   1.418       .  A
C194        C199   1.418   1_556  A
C195        C196   1.409       .  A
C195        C200   1.451       .  S
C196        C197   1.408       .  A
C196        C203   1.451       .  S
C197        C198   1.410   1_556  A
C198        C199   1.409       .  A
C198        C201   1.452       .  S
C199        C202   1.452       .  S
C200        N207   1.157       .  T
C201        N206   1.157       .  T
C202        N204   1.157       .  T
C203        N205   1.157       .  T
C208        C209   1.419       .  A
C208        C213   1.419   1_556  A
C209        C210   1.407       .  A
C209        C214   1.452       .  S
C210        C211   1.407       .  A
C210        C217   1.451       .  S
C211        C212   1.408   1_556  A
C212        C213   1.409       .  A
C212        C215   1.451       .  S
C213        C216   1.452       .  S
C214        N221   1.157       .  T
C215        N220   1.157       .  T
C216        N218   1.157       .  T
C217        N219   1.157       .  T
C222        C472   1.405   1_655  A
C222        C725   1.406       .  A
C223        C224   1.412       .  A
C223        C471   1.405   1_455  A
C223        C228   1.454       .  S
C224        C474   1.431   1_455  A
C224        C231   1.452       .  S
C225        C272   1.517       .  S
C225        C473   1.431   1_655  A
C225        C724   1.429       .  A
C226        C227   1.414       .  A
C226        C723   1.429       .  A
C226        C229   1.451       .  S
C227        C720   1.405       .  A
C227        C230   1.453       .  S
C228        N235   1.157       .  T
C229        N234   1.158       .  T
C230        N232   1.157       .  T
C231        N233   1.158       .  T
C236        C486   1.411       .  A
C236        C739   1.411   1_545  A
C237        C238   1.410       .  A
C237        C485   1.411       .  A
C237        C242   1.450       .  S
C238        C488   1.411       .  A
C238        C245   1.451       .  S
C239        C307   1.480       .  S
C239        C487   1.411   1_565  A
C239        C738   1.411       .  A
C240        C241   1.410       .  A
C240        C737   1.411       .  A
C240        C243   1.451       .  S
C241        C734   1.411       .  A
C241        C244   1.451       .  S
C242        N249   1.157       .  T
C243        N248   1.157       .  T
C244        N246   1.157       .  T
C245        N247   1.157       .  T
Zn250       O254   1.935   1_455  S
Zn250       O255   1.987       .  S
Zn250       O266   2.009       .  S
Zn251       O752   1.961   1_556  S
Zn251       O256   2.017       .  S
Zn251       O756   2.030       .  S
Zn251       O262   2.025       .  S
Zn252       O503   1.962   1_566  S
Zn252       O755   2.029       .  S
Zn252       O260   2.017       .  S
Zn252       O263   2.019       .  S
Zn253       O752   1.949       .  S
Zn253       O264   1.987       .  S
Zn253       O265   2.030       .  S
O254       Zn749   1.962   1_654  S
O254       Zn501   1.960   1_554  S
O254       Zn751   1.949       .  S
O255        C267   1.270   1_554  A
O256        C268   1.272       .  A
O257       Zn750   2.024   1_455  S
O257        C269   1.274       .  A
O258       Zn749   2.028       .  S
O258        C267   1.275       .  A
O259        C269   1.269   1_554  A
O261        C270   1.269       .  A
O262        C271   1.275   1_556  A
O263        C270   1.275   1_556  A
O264        C271   1.270       .  A
O265        C770   1.274       .  A
O266        C272   1.271   1_455  A
C267        C443   1.489       .  S
C268        C485   1.477       .  S
C269        C429   1.485       .  S
C270        C457   1.488   1_554  S
C271        C418   1.491   1_554  S
C272        O763   1.274       .  A
N273        C278   1.352       .  A
N273        C277   1.352       .  A
N273        H305   1.035       .  S
N274        C281   1.349       .  A
N274        C282   1.349       .  A
N275        C280   1.352       .  A
N275        C279   1.351       .  A
N275        H306   1.035       .  S
N276        C283   1.350       .  A
N276        C284   1.350       .  A
C277        C285   1.388   1_556  A
C277        C293   1.415       .  A
C278        C294   1.414       .  A
C278        C286   1.388   1_556  A
C279        C287   1.387   1_556  A
C279        C296   1.411       .  A
C280        C295   1.413       .  A
C280        C288   1.388   1_556  A
C281        C293   1.411       .  A
C281        C289   1.386       .  A
C282        C296   1.410       .  A
C282        C290   1.386       .  A
C283        C291   1.386       .  A
C283        C294   1.412       .  A
C284        C292   1.385       .  A
C284        C295   1.411       .  A
C285        C286   1.369       .  A
C285        H297   1.082       .  S
C286        H298   1.082       .  S
C287        C288   1.366       .  A
C287        H299   1.082       .  S
C288        H300   1.082       .  S
C289        C290   1.374       .  A
C289        H301   1.082       .  S
C290        H302   1.082       .  S
C291        C292   1.375       .  A
C291        H303   1.082       .  S
C292        H304   1.082       .  S
C293        C460   1.488       .  S
C294        C415   1.490       .  S
C295        C446   1.489       .  S
C296        C432   1.486       .  S
C307        C308   1.400       .  A
C308        C309   1.401       .  A
C308        H313   1.084       .  S
C309        C401   1.487       .  S
C309        C310   1.406       .  A
C310        H314   1.084       .  S
C311        C387   1.491       .  S
C311        C312   1.403       .  A
C312        H315   1.084       .  S
C316        C471   1.485       .  S
C316        C321   1.402   1_655  A
C317        C318   1.402       .  A
C317        H322   1.084       .  S
C318        C373   1.490   1_655  S
C319        C320   1.407       .  A
C319        H323   1.084       .  S
C320        C362   1.492       .  S
C320        C321   1.403       .  A
C321        H324   1.084       .  S
N325        C330   1.354       .  A
N325        C329   1.353       .  A
N325        H357   1.037       .  S
N326        C333   1.351       .  A
N326        C334   1.351       .  A
N327        C332   1.355       .  A
N327        C331   1.354       .  A
N327        H358   1.037       .  S
N328        C335   1.353       .  A
N328        C336   1.352       .  A
C329        C337   1.387       .  A
C329        C345   1.415       .  A
C330        C346   1.416       .  A
C330        C338   1.387       .  A
C331        C339   1.386       .  A
C331        C348   1.416       .  A
C332        C347   1.419       .  A
C332        C340   1.389       .  A
C333        C345   1.413       .  A
C333        C341   1.386       .  A
C334        C348   1.414       .  A
C334        C342   1.386       .  A
C335        C343   1.385       .  A
C335        C346   1.416       .  A
C336        C344   1.386       .  A
C336        C347   1.417       .  A
C337        C338   1.371       .  A
C337        H349   1.082       .  S
C338        H350   1.082       .  S
C339        C340   1.371       .  A
C339        H351   1.082       .  S
C340        H352   1.082       .  S
C341        C342   1.377       .  A
C341        H353   1.082       .  S
C342        H354   1.082       .  S
C343        C344   1.379       .  A
C343        H355   1.082       .  S
C344        H356   1.082       .  S
C345        C404   1.495       .  S
C346        C359   1.500       .  S
C347        C376   1.500       .  S
C348        C390   1.498       .  S
C359        C858   1.413       .  A
C359        C364   1.411       .  A
C360        C857   1.413       .  A
C360        C361   1.414       .  A
C360        C365   1.450       .  S
C361        C362   1.413       .  A
C361        C368   1.450       .  S
C362        C861   1.413   1_455  A
C363        C860   1.413       .  A
C363        C364   1.412       .  A
C363        C366   1.450       .  S
C364        C367   1.450       .  S
C365        N372   1.157       .  T
C366        N371   1.157       .  T
C367        N369   1.157       .  T
C368        N370   1.157       .  T
C373        C872   1.413   1_455  A
C373        C378   1.412       .  A
C374        C871   1.412       .  A
C374        C375   1.413       .  A
C374        C379   1.450       .  S
C375        C376   1.414       .  A
C375        C382   1.450       .  S
C376        C875   1.412       .  A
C377        C874   1.412       .  A
C377        C378   1.412       .  A
C377        C380   1.450       .  S
C378        C381   1.450       .  S
C379        N386   1.157       .  T
C380        N385   1.157       .  T
C381        N383   1.157       .  T
C382        N384   1.157       .  T
C387        C388   1.415       .  A
C387        C890   1.413       .  A
C388        C389   1.413       .  A
C388        C393   1.450       .  S
C389        C390   1.411       .  A
C389        C396   1.450       .  S
C390        C889   1.413       .  A
C391        C888   1.413       .  A
C391        C392   1.411       .  A
C391        C394   1.451       .  S
C392        C885   1.414       .  A
C392        C395   1.450       .  S
C393        N400   1.157       .  T
C394        N399   1.157       .  T
C395        N397   1.157       .  T
C396        N398   1.157       .  T
C401        C900   1.411       .  A
C401        C406   1.414       .  A
C402        C899   1.411       .  A
C402        C403   1.409       .  A
C402        C407   1.450       .  S
C403        C902   1.411       .  A
C403        C410   1.451       .  S
C404        C901   1.411       .  A
C404        C405   1.411       .  A
C405        C406   1.412       .  A
C405        C408   1.450       .  S
C406        C409   1.450       .  S
C407        N414   1.157       .  T
C408        N413   1.157       .  T
C409        N411   1.157       .  T
C410        N412   1.157       .  T
C415        C416   1.408   1_556  A
C415        C420   1.408       .  A
C416        C417   1.409       .  A
C416        C421   1.452       .  S
C417        C418   1.420   1_554  A
C417        C424   1.452       .  S
C418        C419   1.420       .  A
C419        C420   1.410       .  A
C419        C422   1.451       .  S
C420        C423   1.451       .  S
C421        N428   1.157       .  T
C422        N427   1.157       .  T
C423        N425   1.157       .  T
C424        N426   1.157       .  T
C429        C430   1.417       .  A
C429        C434   1.418   1_556  A
C430        C431   1.409       .  A
C430        C435   1.451       .  S
C431        C432   1.409       .  A
C431        C438   1.451       .  S
C432        C433   1.408   1_556  A
C433        C434   1.406       .  A
C433        C436   1.452       .  S
C434        C437   1.452       .  S
C435        N442   1.157       .  T
C436        N441   1.157       .  T
C437        N439   1.157       .  T
C438        N440   1.157       .  T
C443        C444   1.418       .  A
C443        C448   1.419   1_556  A
C444        C445   1.409       .  A
C444        C449   1.451       .  S
C445        C446   1.408       .  A
C445        C452   1.451       .  S
C446        C447   1.409   1_556  A
C447        C448   1.409       .  A
C447        C450   1.452       .  S
C448        C451   1.452       .  S
C449        N456   1.157       .  T
C450        N455   1.157       .  T
C451        N453   1.157       .  T
C452        N454   1.157       .  T
C457        C458   1.419       .  A
C457        C462   1.419   1_556  A
C458        C459   1.407       .  A
C458        C463   1.452       .  S
C459        C460   1.407       .  A
C459        C466   1.451       .  S
C460        C461   1.408   1_556  A
C461        C462   1.409       .  A
C461        C464   1.451       .  S
C462        C465   1.452       .  S
C463        N470   1.157       .  T
C464        N469   1.157       .  T
C465        N467   1.157       .  T
C466        N468   1.157       .  T
C471        C974   1.406       .  A
C472        C473   1.412       .  A
C472        C477   1.454       .  S
C473        C480   1.452       .  S
C474        C973   1.429       .  A
C475        C972   1.429   1_545  A
C475        C476   1.414   1_545  A
C475        C478   1.451       .  S
C476        C969   1.405       .  A
C476        C479   1.453   1_565  S
C477        N484   1.157       .  T
C478        N483   1.158       .  T
C479        N481   1.157       .  T
C480        N482   1.158       .  T
C485        C988   1.411       .  A
C486        C487   1.410       .  A
C486        C491   1.450       .  S
C487        C494   1.451       .  S
C488        C987   1.411       .  A
C489        C986   1.411       .  A
C489        C490   1.410       .  A
C489        C492   1.451       .  S
C490        C983   1.411       .  A
C490        C493   1.451       .  S
C491        N498   1.157       .  T
C492        N497   1.157       .  T
C493        N495   1.157       .  T
C494        N496   1.157       .  T
Zn499       O503   1.934   1_565  S
Zn499       O504   1.982   1_565  S
Zn499       O757   1.971       .  S
Zn499       O515   2.008       .  S
Zn500       O505   2.016       .  S
Zn500       O511   2.018   1_455  S
Zn501       O509   2.013   1_655  S
Zn501       O512   2.014       .  S
Zn502       O759   1.994   1_545  S
Zn502       O513   1.987       .  S
Zn502       O514   2.033       .  S
O504        C516   1.269   1_554  A
O505        C517   1.272   1_545  A
O506        C518   1.275       .  A
O507        C516   1.276       .  A
O508       Zn748   1.971       .  S
O508        C518   1.268   1_554  A
O509        C766   1.272       .  A
O510       Zn751   1.995       .  S
O510        C519   1.270       .  A
O511        C520   1.274   1_556  A
O512        C519   1.274   1_556  A
O513        C520   1.271       .  A
O515        C521   1.271       .  A
C516        C692   1.486       .  S
C517        O758   1.272       .  A
C517        C734   1.476       .  S
C518        C678   1.485       .  S
C519        C706   1.489   1_554  S
C520        C667   1.488   1_554  S
C521        C972   1.516       .  S
N522        C527   1.351       .  A
N522        C526   1.352       .  A
N522        H554   1.034       .  S
N523        C530   1.350       .  A
N523        C531   1.349       .  A
N524        C529   1.352       .  A
N524        C528   1.351       .  A
N524        H555   1.035       .  S
N525        C532   1.349       .  A
N525        C533   1.350       .  A
C526        C534   1.388   1_556  A
C526        C542   1.415       .  A
C527        C543   1.414       .  A
C527        C535   1.388   1_556  A
C528        C536   1.388   1_556  A
C528        C545   1.412       .  A
C529        C544   1.413       .  A
C529        C537   1.388   1_556  A
C530        C542   1.411       .  A
C530        C538   1.386       .  A
C531        C545   1.411       .  A
C531        C539   1.386       .  A
C532        C540   1.386       .  A
C532        C543   1.412       .  A
C533        C541   1.385       .  A
C533        C544   1.411       .  A
C534        C535   1.368       .  A
C534        H546   1.082       .  S
C535        H547   1.082       .  S
C536        C537   1.367       .  A
C536        H548   1.082       .  S
C537        H549   1.082       .  S
C538        C539   1.374       .  A
C538        H550   1.082       .  S
C539        H551   1.082       .  S
C540        C541   1.375       .  A
C540        H552   1.082       .  S
C541        H553   1.082       .  S
C542        C709   1.489       .  S
C543        C664   1.487       .  S
C544        C695   1.489       .  S
C545        C681   1.486       .  S
C556        C986   1.481       .  S
C556        C557   1.399       .  A
C556        C810   1.402       .  A
C557        C558   1.399       .  A
C557        H562   1.084       .  S
C558        C650   1.484       .  S
C558        C559   1.405       .  A
C559        C809   1.407       .  A
C559        H563   1.084       .  S
C560        C636   1.493       .  S
C560        C808   1.407   1_545  A
C560        C561   1.404       .  A
C561        C805   1.402   1_545  A
C561        H564   1.084       .  S
C565        C720   1.484       .  S
C565        C815   1.402       .  A
C565        C570   1.402       .  A
C566        C814   1.402   1_545  A
C566        C567   1.401       .  A
C566        H571   1.084       .  S
C567        C622   1.489       .  S
C567        C817   1.408       .  A
C568        C816   1.408       .  A
C568        C569   1.408       .  A
C568        H572   1.084       .  S
C569        C611   1.492       .  S
C569        C570   1.402       .  A
C570        H573   1.084       .  S
N574        C579   1.354   1_455  A
N574        C578   1.353   1_455  A
N574        H606   1.038       .  S
N575        C582   1.351   1_655  A
N575        C583   1.351   1_655  A
N576        C581   1.354   1_455  A
N576        C580   1.354   1_455  A
N576        H607   1.038       .  S
N577        C584   1.353       .  A
N577        C585   1.352       .  A
C578        C586   1.387       .  A
C578        C594   1.415   1_655  A
C579        C595   1.416   1_655  A
C579        C587   1.387       .  A
C580        C588   1.386       .  A
C580        C597   1.416   1_655  A
C581        C596   1.418   1_655  A
C581        C589   1.388       .  A
C582        C594   1.413       .  A
C582        C590   1.386       .  A
C583        C597   1.413       .  A
C583        C591   1.386       .  A
C584        C592   1.385       .  A
C584        C595   1.416       .  A
C585        C593   1.386       .  A
C585        C596   1.417       .  A
C586        C587   1.371       .  A
C586        H598   1.082       .  S
C587        H599   1.082       .  S
C588        C589   1.371       .  A
C588        H600   1.082       .  S
C589        H601   1.082       .  S
C590        C591   1.377       .  A
C590        H602   1.082       .  S
C591        H603   1.082       .  S
C592        C593   1.379       .  A
C592        H604   1.082       .  S
C593        H605   1.082       .  S
C594        C653   1.493       .  S
C595        C608   1.500       .  S
C596        C625   1.499       .  S
C597        C639   1.499       .  S
C608        C613   1.412   1_455  A
C609        C610   1.414       .  A
C609        C614   1.450       .  S
C610        C611   1.413       .  A
C610        C617   1.450       .  S
C612        C613   1.412       .  A
C612        C615   1.450       .  S
C613        C616   1.450       .  S
C614        N621   1.157       .  T
C615        N620   1.157       .  T
C616        N618   1.157       .  T
C617        N619   1.157       .  T
C622        C627   1.412       .  A
C623        C624   1.413       .  A
C623        C628   1.450       .  S
C624        C625   1.413   1_655  A
C624        C631   1.450       .  S
C626        C627   1.412       .  A
C626        C629   1.450       .  S
C627        C630   1.450       .  S
C628        N635   1.157       .  T
C629        N634   1.157       .  T
C630        N632   1.157       .  T
C631        N633   1.157       .  T
C636        C637   1.416   1_455  A
C637        C638   1.413       .  A
C637        C642   1.450       .  S
C638        C639   1.411   1_655  A
C638        C645   1.450       .  S
C640        C641   1.410       .  A
C640        C643   1.451       .  S
C641        C644   1.450       .  S
C642        N649   1.157       .  T
C643        N648   1.157       .  T
C644        N646   1.157       .  T
C645        N647   1.157       .  T
C650        C655   1.412   1_455  A
C651        C652   1.409       .  A
C651        C656   1.450       .  S
C652        C659   1.451       .  S
C653        C654   1.411   1_455  A
C654        C655   1.411       .  A
C654        C657   1.450       .  S
C655        C658   1.450       .  S
C656        N663   1.157       .  T
C657        N662   1.157       .  T
C658        N660   1.157       .  T
C659        N661   1.157       .  T
C664        C665   1.408   1_556  A
C664        C669   1.407       .  A
C665        C666   1.407       .  A
C665        C670   1.452       .  S
C666        C667   1.418   1_554  A
C666        C673   1.452       .  S
C667        C668   1.420       .  A
C668        C669   1.408       .  A
C668        C671   1.451       .  S
C669        C672   1.452       .  S
C670        N677   1.157       .  T
C671        N676   1.157       .  T
C672        N674   1.157       .  T
C673        N675   1.157       .  T
C678        C679   1.417       .  A
C678        C683   1.418   1_556  A
C679        C680   1.409       .  A
C679        C684   1.451       .  S
C680        C681   1.409       .  A
C680        C687   1.451       .  S
C681        C682   1.407   1_556  A
C682        C683   1.406       .  A
C682        C685   1.452       .  S
C683        C686   1.452       .  S
C684        N691   1.157       .  T
C685        N690   1.157       .  T
C686        N688   1.157       .  T
C687        N689   1.157       .  T
C692        C693   1.417       .  A
C692        C697   1.418   1_556  A
C693        C694   1.409       .  A
C693        C698   1.451       .  S
C694        C695   1.409       .  A
C694        C701   1.451       .  S
C695        C696   1.409   1_556  A
C696        C697   1.409       .  A
C696        C699   1.451       .  S
C697        C700   1.452       .  S
C698        N705   1.157       .  T
C699        N704   1.157       .  T
C700        N702   1.157       .  T
C701        N703   1.157       .  T
C706        C707   1.419       .  A
C706        C711   1.419   1_556  A
C707        C708   1.408       .  A
C707        C712   1.452       .  S
C708        C709   1.407       .  A
C708        C715   1.451       .  S
C709        C710   1.409   1_556  A
C710        C711   1.409       .  A
C710        C713   1.452       .  S
C711        C714   1.451       .  S
C712        N719   1.157       .  T
C713        N718   1.157       .  T
C714        N716   1.157       .  T
C715        N717   1.157       .  T
C720        C970   1.405       .  A
C721        C969   1.405       .  A
C721        C722   1.412       .  A
C721        C726   1.454       .  S
C722        C972   1.431       .  A
C722        C729   1.452       .  S
C723        C770   1.516       .  S
C723        C971   1.431       .  A
C724        C725   1.415       .  A
C724        C727   1.451       .  S
C725        C728   1.452       .  S
C726        N733   1.157       .  T
C727        N732   1.158       .  T
C728        N730   1.157       .  T
C729        N731   1.158       .  T
C734        C984   1.411   1_465  A
C735        C983   1.411   1_655  A
C735        C736   1.410       .  A
C735        C740   1.451       .  S
C736        C986   1.411   1_655  A
C736        C743   1.451       .  S
C737        C805   1.480       .  S
C737        C985   1.411   1_465  A
C738        C739   1.410       .  A
C738        C741   1.451       .  S
C739        C742   1.451       .  S
C740        N747   1.157       .  T
C741        N746   1.157       .  T
C742        N744   1.157       .  T
C743        N745   1.157       .  T
Zn748       O752   1.934       .  S
Zn748       O753   1.982       .  S
Zn748       O764   2.008       .  S
Zn749       O754   2.016       .  S
Zn749       O760   2.018   1_455  S
Zn750       O758   2.014   1_655  S
Zn750       O761   2.015       .  S
Zn751       O762   1.987       .  S
Zn751       O763   2.034       .  S
O753        C765   1.269   1_554  A
O754        C766   1.272       .  A
O755        C767   1.275       .  A
O756        C765   1.276       .  A
O757        C767   1.268   1_554  A
O759        C768   1.270       .  A
O760        C769   1.274   1_556  A
O761        C768   1.274   1_556  A
O762        C769   1.271       .  A
O764        C770   1.271       .  A
C765        C941   1.486       .  S
C766        C983   1.476       .  S
C767        C927   1.485       .  S
C768        C955   1.488   1_554  S
C769        C916   1.488   1_554  S
N771        C776   1.351       .  A
N771        C775   1.352       .  A
N771        H803   1.033       .  S
N772        C779   1.350       .  A
N772        C780   1.349       .  A
N773        C778   1.352       .  A
N773        C777   1.351       .  A
N773        H804   1.035       .  S
N774        C781   1.349       .  A
N774        C782   1.350       .  A
C775        C783   1.388       .  A
C775        C791   1.415       .  A
C776        C792   1.415       .  A
C776        C784   1.388       .  A
C777        C785   1.388   1_556  A
C777        C794   1.412       .  A
C778        C793   1.413       .  A
C778        C786   1.388   1_556  A
C779        C791   1.412       .  A
C779        C787   1.386       .  A
C780        C794   1.412       .  A
C780        C788   1.386       .  A
C781        C789   1.386       .  A
C781        C792   1.413       .  A
C782        C790   1.385       .  A
C782        C793   1.411       .  A
C783        C784   1.368       .  A
C783        H795   1.082   1_556  S
C784        H796   1.082   1_556  S
C785        C786   1.367       .  A
C785        H797   1.082       .  S
C786        H798   1.082       .  S
C787        C788   1.374       .  A
C787        H799   1.082       .  S
C788        H800   1.082       .  S
C789        C790   1.375       .  A
C789        H801   1.082       .  S
C790        H802   1.082       .  S
C791        C958   1.489       .  S
C792        C913   1.487       .  S
C793        C944   1.490       .  S
C794        C930   1.486       .  S
C805        C806   1.400       .  A
C806        C807   1.399       .  A
C806        H811   1.084       .  S
C807        C899   1.484       .  S
C807        C808   1.405       .  A
C808        H812   1.084       .  S
C809        C885   1.493       .  S
C809        C810   1.404       .  A
C810        H813   1.084       .  S
C814        C969   1.484       .  S
C814        C819   1.402       .  A
C815        C816   1.401       .  A
C815        H820   1.084       .  S
C816        C871   1.489       .  S
C817        C818   1.408   1_545  A
C817        H821   1.084       .  S
C818        C860   1.492       .  S
C818        C819   1.403       .  A
C819        H822   1.084       .  S
N823        C828   1.354   1_455  A
N823        C827   1.353   1_455  A
N823        H855   1.037       .  S
N824        C831   1.351   1_655  A
N824        C832   1.351   1_655  A
N825        C830   1.354   1_455  A
N825        C829   1.354   1_455  A
N825        H856   1.037       .  S
N826        C833   1.353       .  A
N826        C834   1.352       .  A
C827        C835   1.387       .  A
C827        C843   1.415   1_655  A
C828        C844   1.416   1_655  A
C828        C836   1.387       .  A
C829        C837   1.386       .  A
C829        C846   1.416   1_655  A
C830        C845   1.418   1_655  A
C830        C838   1.389       .  A
C831        C843   1.413       .  A
C831        C839   1.386       .  A
C832        C846   1.414       .  A
C832        C840   1.386       .  A
C833        C841   1.385       .  A
C833        C844   1.416       .  A
C834        C842   1.386       .  A
C834        C845   1.417       .  A
C835        C836   1.371       .  A
C835        H847   1.082       .  S
C836        H848   1.082       .  S
C837        C838   1.371       .  A
C837        H849   1.082       .  S
C838        H850   1.082       .  S
C839        C840   1.377       .  A
C839        H851   1.082       .  S
C840        H852   1.082       .  S
C841        C842   1.379       .  A
C841        H853   1.082       .  S
C842        H854   1.082       .  S
C843        C902   1.494       .  S
C844        C857   1.500       .  S
C845        C874   1.500       .  S
C846        C888   1.499       .  S
C857        C862   1.412   1_455  A
C858        C859   1.414       .  A
C858        C863   1.450       .  S
C859        C860   1.413       .  A
C859        C866   1.450       .  S
C861        C862   1.412       .  A
C861        C864   1.450       .  S
C862        C865   1.450       .  S
C863        N870   1.157       .  T
C864        N869   1.157       .  T
C865        N867   1.157       .  T
C866        N868   1.157       .  T
C871        C876   1.412       .  A
C872        C873   1.413       .  A
C872        C877   1.450       .  S
C873        C874   1.413   1_655  A
C873        C880   1.450       .  S
C875        C876   1.412       .  A
C875        C878   1.450       .  S
C876        C879   1.450       .  S
C877        N884   1.157       .  T
C878        N883   1.157       .  T
C879        N881   1.157       .  T
C880        N882   1.157       .  T
C885        C886   1.416   1_455  A
C886        C887   1.413       .  A
C886        C891   1.450       .  S
C887        C888   1.411   1_655  A
C887        C894   1.450       .  S
C889        C890   1.410       .  A
C889        C892   1.451       .  S
C890        C893   1.450       .  S
C891        N898   1.157       .  T
C892        N897   1.157       .  T
C893        N895   1.157       .  T
C894        N896   1.157       .  T
C899        C904   1.412   1_455  A
C900        C901   1.410       .  A
C900        C905   1.450       .  S
C901        C908   1.451       .  S
C902        C903   1.412   1_455  A
C903        C904   1.411       .  A
C903        C906   1.450       .  S
C904        C907   1.450       .  S
C905        N912   1.157       .  T
C906        N911   1.157       .  T
C907        N909   1.157       .  T
C908        N910   1.157       .  T
C913        C914   1.408   1_556  A
C913        C918   1.407       .  A
C914        C915   1.407       .  A
C914        C919   1.452       .  S
C915        C916   1.418   1_554  A
C915        C922   1.452       .  S
C916        C917   1.420       .  A
C917        C918   1.409       .  A
C917        C920   1.451       .  S
C918        C921   1.452       .  S
C919        N926   1.157       .  T
C920        N925   1.157       .  T
C921        N923   1.157       .  T
C922        N924   1.157       .  T
C927        C928   1.417       .  A
C927        C932   1.418   1_556  A
C928        C929   1.409       .  A
C928        C933   1.451       .  S
C929        C930   1.409       .  A
C929        C936   1.451       .  S
C930        C931   1.407   1_556  A
C931        C932   1.406       .  A
C931        C934   1.452       .  S
C932        C935   1.452       .  S
C933        N940   1.157       .  T
C934        N939   1.157       .  T
C935        N937   1.157       .  T
C936        N938   1.157       .  T
C941        C942   1.417       .  A
C941        C946   1.418   1_556  A
C942        C943   1.409       .  A
C942        C947   1.451       .  S
C943        C944   1.409       .  A
C943        C950   1.451       .  S
C944        C945   1.409   1_556  A
C945        C946   1.409       .  A
C945        C948   1.451       .  S
C946        C949   1.452       .  S
C947        N954   1.157       .  T
C948        N953   1.157       .  T
C949        N951   1.157       .  T
C950        N952   1.157       .  T
C955        C956   1.419       .  A
C955        C960   1.418   1_556  A
C956        C957   1.408       .  A
C956        C961   1.452       .  S
C957        C958   1.407       .  A
C957        C964   1.451       .  S
C958        C959   1.409   1_556  A
C959        C960   1.409       .  A
C959        C962   1.451       .  S
C960        C963   1.451       .  S
C961        N968   1.157       .  T
C962        N967   1.157       .  T
C963        N965   1.157       .  T
C964        N966   1.157       .  T
C970        C971   1.412       .  A
C970        C975   1.454       .  S
C971        C978   1.452       .  S
C973        C974   1.415       .  A
C973        C976   1.451   1_565  S
C974        C977   1.452       .  S
C975        N982   1.157       .  T
C976        N981   1.158       .  T
C977        N979   1.157       .  T
C978        N980   1.158       .  T
C984        C985   1.410       .  A
C984        C989   1.451       .  S
C985        C992   1.451       .  S
C987        C988   1.410       .  A
C987        C990   1.451       .  S
C988        C991   1.450       .  S
C989        N996   1.157       .  T
C990        N995   1.157       .  T
C991        N993   1.157       .  T
C992        N994   1.157       .  T
