geometry optimzed in LAMMPS
_audit_creation_date              2020-12-01 
_audit_creation_method            'lammps2cif' 
_symmetry_space_group_name_H-M    'P1' 
_symmetry_Int_Tables_number       1 
_symmetry_cell_setting            triclinic 
loop_ 
_symmetry_equiv_pos_as_xyz 
  x,y,z 
_cell_length_a                    26.99351567 
_cell_length_b                    27.05679748008098 
_cell_length_c                    89.98843902494409 
_cell_angle_alpha                 90.46629881735582 
_cell_angle_beta                  89.56801387848905 
_cell_angle_gamma                 89.77266881401945 
loop_ 
_atom_site_label 
_atom_site_type_symbol 
_atom_site_fract_x 
_atom_site_fract_y 
_atom_site_fract_z 
_atom_site_charge 
C1          C  0.49087285  0.05765296  0.24190100     0.86800
C2          C  0.44560536  0.05027025  0.25224481    -0.53500
C3          C  0.44512769  0.00683570  0.25990672     0.09700
C4          C  0.48999715  0.97324862  0.25609343     0.20600
C5          C  0.53516751  0.04980237  0.25230037    -0.54200
C6          C  0.53541171  0.00556174  0.25965408     0.09800
C7          C  0.49068274  0.01216688  0.23167462    -0.53700
C8          C  0.49086518  0.96818762  0.23891519     0.10300
H9          H  0.41696014  0.07743472  0.25431262     0.14900
H10         H  0.48956773  0.93784902  0.26214878     0.00600
H11         H  0.56394753  0.07732133  0.25374797     0.15200
H12         H  0.49123830  0.01451039  0.21962578     0.15000
N13         N  0.93844001  0.49770439  0.00235179    -0.36300
N14         N  0.01106502  0.49294880  0.97849961    -0.56900
N15         N  0.08903688  0.49111932  0.00037140    -0.36300
N16         N  0.01669274  0.49152462  0.02426082    -0.56900
C17         C  0.90912416  0.48685732  0.99063812     0.27200
C18         C  0.91199262  0.48838652  0.01482544     0.27200
C19         C  0.11483989  0.48047824  0.98782343     0.27200
C20         C  0.11781431  0.47821540  0.01193769     0.27200
C21         C  0.97017505  0.50405616  0.97063734     0.35900
C22         C  0.05025935  0.50313854  0.96965044     0.35900
C23         C  0.97823269  0.50219673  0.03342851     0.35900
C24         C  0.05821393  0.49716732  0.03236891     0.35900
C25         C  0.86353091  0.47042678  0.99574423    -0.21600
C26         C  0.86522796  0.47170142  0.01102240    -0.21600
C27         C  0.16047345  0.46031946  0.99144471    -0.21600
C28         C  0.16239386  0.45900462  0.00670025    -0.21600
C29         C  0.98339113  0.52118903  0.95668939    -0.22700
C30         C  0.03427017  0.52076650  0.95608138    -0.22700
C31         C  0.99530221  0.51387436  0.04751414    -0.22700
C32         C  0.04610752  0.51072749  0.04683774    -0.22700
C33         C  0.92123531  0.49516760  0.97554034    -0.18000
C34         C  0.92792621  0.49757513  0.02950764    -0.18000
C35         C  0.10664210  0.48757317  0.02703447    -0.18000
C36         C  0.09992981  0.49271073  0.97330321    -0.18000
H37         H  0.83198469  0.45950198  0.98915143     0.14900
H38         H  0.83529374  0.46180571  0.01848090     0.14900
H39         H  0.18975673  0.44876137  0.98388583     0.14900
H40         H  0.19342900  0.44626473  0.01320638     0.14900
H41         H  0.95892450  0.53223358  0.94782969     0.13200
H42         H  0.05685923  0.53126226  0.94664336     0.13200
H43         H  0.97341734  0.52298413  0.05729277     0.13200
H44         H  0.07119146  0.51709957  0.05597785     0.13200
H45         H  0.97209344  0.51617691  0.00191796     0.26400
H46         H  0.05687854  0.51228651  0.00100968     0.26400
C47         C  0.42768078  0.00563128  0.74323187     0.86800
C48         C  0.43294649  0.96385798  0.75477239    -0.53500
C49         C  0.47730346  0.96296293  0.76199888     0.09700
C50         C  0.51281675  0.00440339  0.75708331     0.20600
C51         C  0.43872127  0.05293866  0.75205210    -0.54200
C52         C  0.48301272  0.05299861  0.75933918     0.09800
C53         C  0.47277350  0.99778326  0.73299095    -0.53700
C54         C  0.51720939  0.99714743  0.74009989     0.10300
H55         H  0.40568561  0.93562820  0.75694741     0.14900
H56         H  0.54913075  0.00400777  0.76276093     0.00600
H57         H  0.41296009  0.08386444  0.75258415     0.15200
H58         H  0.46975312  0.99346294  0.72102690     0.15000
C59         C  0.05680981  0.49506948  0.75893630     0.86800
C60         C  0.04887341  0.44925936  0.74880942    -0.53500
C61         C  0.00655257  0.45056100  0.74056831     0.09700
C62         C  0.97567731  0.49803633  0.74295779     0.20600
C63         C  0.05403437  0.53904536  0.74824839    -0.54200
C64         C  0.01197279  0.54074055  0.73989374     0.09800
C65         C  0.00849813  0.49790117  0.76806578    -0.53700
C66         C  0.96604127  0.50042737  0.75987499     0.10300
H67         H  0.07297210  0.41731799  0.74816948     0.14900
H68         H  0.94165229  0.49911496  0.73612177     0.00600
H69         H  0.08253420  0.56719053  0.74758250     0.15200
H70         H  0.00797709  0.49770245  0.78013546     0.15000
N71         N  0.51736755  0.93449740  0.00153181    -0.36300
N72         N  0.51828837  0.01074014  0.97825320    -0.56900
N73         N  0.52075933  0.08516827  0.00101549    -0.36300
N74         N  0.52338139  0.00901169  0.02411552    -0.56900
C75         C  0.52846397  0.90610543  0.98951581     0.27200
C76         C  0.52372602  0.90600294  0.01372526     0.27200
C77         C  0.53567424  0.10887638  0.98860639     0.27200
C78         C  0.54450531  0.10654995  0.01255849     0.27200
C79         C  0.52008948  0.96984532  0.96946691     0.35900
C80         C  0.51562149  0.05061237  0.96916986     0.35900
C81         C  0.51076029  0.97090773  0.03292542     0.35900
C82         C  0.51888757  0.05035670  0.03247214     0.35900
C83         C  0.54178060  0.85906540  0.99416666    -0.21600
C84         C  0.53855003  0.85896861  0.00940402    -0.21600
C85         C  0.57214340  0.14284826  0.99214818    -0.21600
C86         C  0.57642446  0.14262324  0.00741779    -0.21600
C87         C  0.51991742  0.98370853  0.95470791    -0.22700
C88         C  0.51946702  0.03432544  0.95451948    -0.22700
C89         C  0.49815487  0.98808926  0.04701376    -0.22700
C90         C  0.50320789  0.03870133  0.04671642    -0.22700
C91         C  0.52500841  0.92023194  0.97439826    -0.18000
C92         C  0.51483592  0.92080622  0.02863713    -0.18000
C93         C  0.53387178  0.09732895  0.02761251    -0.18000
C94         C  0.51554683  0.10089766  0.97434133    -0.18000
H95         H  0.55265046  0.82781848  0.98728159     0.14900
H96         H  0.54633173  0.82779644  0.01649120     0.14900
H97         H  0.59180563  0.16683311  0.98457594     0.14900
H98         H  0.59994460  0.16640409  0.01400886     0.14900
H99         H  0.52305655  0.96008061  0.94499288     0.13200
H100        H  0.52633083  0.05550953  0.94461014     0.13200
H101        H  0.48744478  0.96636777  0.05655243     0.13200
H102        H  0.49737918  0.06381174  0.05599502     0.13200
H103        H  0.50158682  0.96955352  0.00132549     0.26400
H104        H  0.49145493  0.06020894  0.00174627     0.26400
C105        C  0.66384451  0.50903495  0.89472896     0.42700
N106        N  0.62075625  0.48756700  0.87575720     0.01600
C107        C  0.46547996  0.64033041  0.83487683    -0.06300
H108        H  0.42814685  0.63788604  0.89113472     0.07100
C109        C  0.39003287  0.45587685  0.88764235    -0.06600
Co110      Co  0.57575265  0.57457987  0.86032412     0.74200
N111        N  0.48483573  0.60555798  0.87697727    -0.25800
Co112      Co  0.44743967  0.56542995  0.86045749     0.74100
C113        C  0.36861433  0.49953131  0.89502599     0.42800
N114        N  0.50000919  0.40130719  0.87554474     0.01200
N115        N  0.41330711  0.52244324  0.87653451     0.01300
N116        N  0.54876933  0.64769416  0.83571861    -0.46600
H117        H  0.64914505  0.59168608  0.89051433     0.07100
N118        N  0.53367514  0.60821387  0.87709684     0.01600
N119        N  0.41055685  0.52328281  0.84411257     0.01400
C120        C  0.35804910  0.49789743  0.82773890     0.43000
N121        N  0.54871693  0.40475313  0.87542734    -0.25300
C122        C  0.63963066  0.55706980  0.83168431    -0.06200
N123        N  0.64821241  0.46983311  0.88667061    -0.46400
N124        N  0.37623601  0.53868291  0.83466083    -0.46600
C125        C  0.65783962  0.51405620  0.82336701     0.42700
N126        N  0.53283914  0.61249618  0.84472857     0.01600
N127        N  0.54846396  0.40585893  0.84299698    -0.25300
N128        N  0.61753458  0.53622768  0.87605461    -0.25800
N129        N  0.49977285  0.40228599  0.84301737     0.01200
H130        H  0.60593486  0.36811423  0.83073438     0.07100
H131        H  0.38153241  0.41675218  0.83117547     0.07200
N132        N  0.48413928  0.60782708  0.84455160    -0.25800
N133        N  0.41693924  0.47381858  0.87630695    -0.25400
N134        N  0.61904688  0.48986347  0.84295395     0.01600
C135        C  0.51069035  0.65107680  0.89612407     0.43000
C136        C  0.56668752  0.37776777  0.88662562    -0.06700
N137        N  0.41577771  0.47472645  0.84384399    -0.25400
H138        H  0.38431198  0.41714185  0.88994539     0.07200
N139        N  0.55061245  0.63529279  0.88827709    -0.46600
H140        H  0.60536804  0.37497890  0.88943017     0.07100
C141        C  0.52383754  0.35399372  0.82517169     0.42800
C142        C  0.64425389  0.55322817  0.88753588    -0.06200
Co143      Co  0.58526551  0.44639280  0.85927963     0.73800
N144        N  0.48318363  0.37294642  0.88638085    -0.46400
C145        C  0.50840335  0.66706594  0.82909758     0.43100
N146        N  0.64464695  0.47379068  0.83123724    -0.46400
Co147      Co  0.45749315  0.43732581  0.85964095     0.73900
C148        C  0.38526286  0.45569138  0.83364533    -0.06700
C149        C  0.46691561  0.63219112  0.88849415    -0.06200
N150        N  0.61544543  0.53852332  0.84343850    -0.25800
N151        N  0.38493942  0.53919001  0.88750973    -0.46500
H152        H  0.42651712  0.64823302  0.83342007     0.07100
C153        C  0.56703432  0.37642763  0.83224944    -0.06700
Cl154      Cl  0.51644327  0.50596332  0.85987328    -0.49700
C155        C  0.52303790  0.35628281  0.89387021     0.42900
H156        H  0.64448885  0.59589984  0.82934473     0.07100
N157        N  0.48358805  0.37130449  0.83267101    -0.46400
C158        C  0.65779329  0.51416359  0.17744114     0.42700
N159        N  0.61132675  0.49048558  0.15945556     0.01600
C160        C  0.46589226  0.63729201  0.11431292    -0.06300
H161        H  0.41742634  0.64408365  0.17022501     0.07100
C162        C  0.37434130  0.45950658  0.16620584    -0.06600
Co163      Co  0.57022653  0.57634885  0.14273598     0.74200
N164        N  0.47628894  0.60843355  0.15779335    -0.25800
Co165      Co  0.44187745  0.56858617  0.14088451     0.74100
C166        C  0.35005404  0.50285480  0.17290962     0.42800
N167        N  0.48899121  0.40496151  0.15701779     0.01200
N168        N  0.40247895  0.52635458  0.15627901     0.01300
N169        N  0.54953826  0.64057732  0.11538801    -0.46600
H170        H  0.64415702  0.59616999  0.17218248     0.07100
N171        N  0.52501497  0.61142988  0.15850801     0.01600
N172        N  0.41001375  0.52710076  0.12384159     0.01400
C173        C  0.37288049  0.50437284  0.10398502     0.43000
N174        N  0.53766957  0.40796789  0.15795325    -0.25300
C175        C  0.64509602  0.55751980  0.11682332    -0.06200
N176        N  0.64100365  0.47400191  0.17000898    -0.46400
N177        N  0.38490647  0.54415162  0.11235942    -0.46600
C178        C  0.66819392  0.51399629  0.11007300     0.42700
N179        N  0.53097017  0.61200271  0.12594910     0.01600
N180        N  0.54464596  0.40926853  0.12541745    -0.25300
N181        N  0.60823039  0.53917760  0.15935787    -0.25800
N182        N  0.49598370  0.40559847  0.12468697     0.01200
H183        H  0.60402497  0.37943747  0.11178637     0.07100
H184        H  0.38635791  0.42207411  0.10889953     0.07200
N185        N  0.48218724  0.60934571  0.12549170    -0.25800
N186        N  0.40610708  0.47770983  0.15611129    -0.25400
N187        N  0.61762436  0.49071294  0.12701043     0.01600
C188        C  0.49891558  0.65762263  0.17643496     0.43000
C189        C  0.55278490  0.37875050  0.16903666    -0.06700
N190        N  0.41395239  0.47849355  0.12367919    -0.25400
H191        H  0.36612932  0.42075295  0.16766090     0.07200
N192        N  0.54006422  0.64073075  0.16942008    -0.46600
H193        H  0.59090540  0.37145664  0.17195005     0.07100
C194        C  0.52271149  0.36456268  0.10579639     0.42800
C195        C  0.63664850  0.55743234  0.17022547    -0.06200
Co196      Co  0.57860630  0.44874077  0.14251676     0.73800
N197        N  0.46949388  0.37454344  0.16686019    -0.46400
C198        C  0.51057119  0.65721160  0.10748661     0.43100
N199        N  0.64936703  0.47386105  0.11685133    -0.46400
Co200      Co  0.45054351  0.44086624  0.14038440     0.73900
C201        C  0.39117680  0.46074820  0.11161900    -0.06700
C202        C  0.45652315  0.63681621  0.16858388    -0.06200
N203        N  0.61427974  0.53940297  0.12715230    -0.25800
N204        N  0.36889650  0.54282075  0.16596272    -0.46500
H205        H  0.42751293  0.64357504  0.11149804     0.07100
C206        C  0.56482809  0.38433620  0.11392298    -0.06700
Cl207      Cl  0.51034611  0.50862810  0.14167824    -0.49700
C208        C  0.50737539  0.35639388  0.17482930     0.42900
H209        H  0.65132560  0.59622587  0.11459515     0.07100
N210        N  0.48129445  0.37828098  0.11326378    -0.46400
C211        C  0.12523720  0.00495682  0.67673376     0.42700
N212        N  0.07781950  0.97987485  0.65914330     0.01600
C213        C  0.92660048  0.11988000  0.61383140    -0.06300
H214        H  0.88158476  0.13239354  0.66934982     0.07100
C215        C  0.84404836  0.94340447  0.66768318    -0.06600
Co216      Co  0.03412969  0.06319446  0.64192080     0.74200
N217        N  0.94059638  0.09548160  0.65727338    -0.25800
Co218      Co  0.90616712  0.05211247  0.64098008     0.74100
C219        C  0.81930303  0.98666933  0.67416677     0.42800
N220        N  0.95812678  0.89070527  0.65837880     0.01200
N221        N  0.86961392  0.01013200  0.65703393     0.01300
N222        N  0.01018265  0.12566359  0.61455077    -0.46600
H223        H  0.10910631  0.08667603  0.67123827     0.07100
N224        N  0.98930913  0.09986070  0.65760047     0.01600
N225        N  0.87379332  0.00778588  0.62456207     0.01400
C226        C  0.83189185  0.98204727  0.60579956     0.43000
N227        N  0.00656677  0.89595175  0.65907552    -0.25300
C228        C  0.10396098  0.04098273  0.61460121    -0.06200
N229        N  0.10804134  0.96446460  0.66965005    -0.46400
N230        N  0.84568044  0.02288393  0.61346201    -0.46600
C231        C  0.12601323  0.99637746  0.60792730     0.42700
N232        N  0.99299087  0.09637114  0.62512733     0.01600
N233        N  0.01168179  0.89276228  0.62661003    -0.25300
N234        N  0.07398057  0.02844642  0.65873953    -0.25800
N235        N  0.96313547  0.88827758  0.62594839     0.01200
H236        H  0.07168131  0.86001151  0.61395952     0.07100
H237        H  0.84999770  0.90067010  0.61107306     0.07200
N238        N  0.94427032  0.09235416  0.62492364    -0.25800
N239        N  0.87408664  0.96154855  0.65714997    -0.25400
N240        N  0.08151554  0.97622802  0.62675958     0.01600
C241        C  0.96315173  0.15113116  0.67430727     0.43000
C242        C  0.02355313  0.86843561  0.67025726    -0.06700
N243        N  0.87880172  0.95928129  0.62479570    -0.25400
H244        H  0.83768537  0.90461137  0.66972647     0.07200
N245        N  0.00426962  0.13262123  0.66762075    -0.46600
H246        H  0.06223336  0.86364822  0.67294298     0.07100
C247        C  0.99064003  0.84355512  0.60786253     0.42800
C248        C  0.10238388  0.04768766  0.66950564    -0.06200
Co249      Co  0.04516325  0.93560748  0.64297654     0.73800
N250        N  0.94069079  0.85990934  0.66849184    -0.46400
C251        C  0.97035774  0.14175535  0.60697202     0.43100
N252        N  0.11022131  0.95788915  0.61607442    -0.46400
Co253      Co  0.91782066  0.92416215  0.64155495     0.73900
C254        C  0.85355220  0.93973575  0.61343207    -0.06700
C255        C  0.92077487  0.12635787  0.66748308    -0.06200
N256        N  0.07716357  0.02474326  0.62619570    -0.25800
N257        N  0.83714735  0.02662109  0.66701472    -0.46500
H258        H  0.88789592  0.12552289  0.61133108     0.07100
C259        C  0.03236078  0.86551482  0.61569679    -0.06700
Cl260      Cl  0.97579408  0.99385503  0.64189890    -0.49700
C261        C  0.97966192  0.84424035  0.67655486     0.42900
H262        H  0.10820776  0.07922464  0.61145252     0.07100
N263        N  0.94893723  0.85853921  0.61502038    -0.46400
C264        C  0.99183766  0.13890970  0.32568794     0.42700
N265        N  0.96669954  0.08737929  0.34225925     0.01600
C266        C  0.11007316  0.93953962  0.38756846    -0.06300
H267        H  0.13594446  0.90064999  0.33319908     0.07100
C268        C  0.94190124  0.85565437  0.33213873    -0.06600
Co269      Co  0.05189114  0.04653623  0.35961561     0.74200
N270        N  0.09041034  0.95632909  0.34397431    -0.25800
Co271      Co  0.04751790  0.91869641  0.35972696     0.74100
C272        C  0.98622227  0.83820453  0.32434285     0.42800
N273        N  0.88254517  0.96170862  0.34295137     0.01200
N274        N  0.00765993  0.88194336  0.34321001     0.01300
N275        N  0.11407675  0.02308694  0.38737466    -0.46600
H276        H  0.07347027  0.12528119  0.33171782     0.07100
N277        N  0.09202965  0.00511410  0.34398226     0.01600
N278        N  0.00540780  0.88284592  0.37593492     0.01400
C279        C  0.98322670  0.83919408  0.39464620     0.43000
N280        N  0.88502759  0.01035283  0.34208324    -0.25300
C281        C  0.02728670  0.11645605  0.38619247    -0.06200
N282        N  0.95103193  0.11937435  0.33220037    -0.46400
N283        N  0.02283408  0.85559337  0.38691233    -0.46600
C284        C  0.98246078  0.13702335  0.39295134     0.42700
N285        N  0.08651342  0.00594320  0.37635130     0.01600
N286        N  0.88205643  0.01471448  0.37463346    -0.25300
N287        N  0.01555250  0.08535852  0.34294088    -0.25800
N288        N  0.88072658  0.96603554  0.37524188     0.01200
H289        H  0.84457595  0.07208531  0.38715123     0.07100
H290        H  0.90048560  0.85416106  0.39024430     0.07200
N291        N  0.08424036  0.95724768  0.37618868    -0.25800
N292        N  0.95874713  0.88287057  0.34350442    -0.25400
N293        N  0.96235681  0.08952995  0.37478628     0.01600
C294        C  0.14977788  0.98322279  0.32871841     0.43000
C295        C  0.85524230  0.02498598  0.33103481    -0.06700
N296        N  0.95664533  0.88556351  0.37602436    -0.25400
H297        H  0.90338682  0.84871889  0.32968023     0.07200
N298        N  0.12689048  0.02260826  0.33503230    -0.46600
H299        H  0.84622030  0.06291541  0.32844248     0.07100
C300        C  0.83131726  0.99008744  0.39275801     0.42800
C301        C  0.03460425  0.11646315  0.33291588    -0.06200
Co302      Co  0.92324498  0.05131303  0.35832812     0.73800
N303        N  0.85178040  0.94190868  0.33320284    -0.46400
C304        C  0.13043982  0.98303803  0.39481896     0.43100
N305        N  0.94357064  0.11921658  0.38521948    -0.46400
Co306      Co  0.91904347  0.92328615  0.35949619     0.73900
C307        C  0.93917443  0.85922631  0.38747497    -0.06700
C308        C  0.12567858  0.93907877  0.33464249    -0.06200
N309        N  0.01118459  0.08714561  0.37520233    -0.25800
N310        N  0.02570703  0.85518904  0.33198228    -0.46500
H311        H  0.11472133  0.90088992  0.39019169     0.07100
C312        C  0.85228616  0.03325415  0.38532156    -0.06700
Cl313      Cl  0.98543118  0.98504284  0.35919942    -0.49700
C314        C  0.83369061  0.97930872  0.32505783     0.42900
H315        H  0.06564060  0.12356206  0.38883063     0.07100
N316        N  0.85075818  0.94983472  0.38585369    -0.46400
N317        N  0.99727328  0.56564770  0.50051043    -0.36300
N318        N  0.00257071  0.48810487  0.47765797    -0.56900
N319        N  0.98666126  0.41411145  0.50043429    -0.36300
N320        N  0.98667248  0.49142559  0.52332290    -0.56900
C321        C  0.01221249  0.59223307  0.48863556     0.27200
C322        C  0.00440053  0.59395510  0.51279390     0.27200
C323        C  0.99663380  0.38443167  0.48857519     0.27200
C324        C  0.99054892  0.38618685  0.51279481     0.27200
C325        C  0.00042301  0.52825285  0.46882905     0.35900
C326        C  0.99434532  0.44844366  0.46877404     0.35900
C327        C  0.97904454  0.53227929  0.53179948     0.35900
C328        C  0.97452883  0.45230117  0.53182655     0.35900
C329        C  0.02856363  0.63818169  0.49338568    -0.21600
C330        C  0.02383803  0.63920343  0.50863539    -0.21600
C331        C  0.00593774  0.33684061  0.49345226    -0.21600
C332        C  0.00256718  0.33804036  0.50871727    -0.21600
C333        C  0.99194826  0.51396407  0.45424687    -0.22700
C334        C  0.98835393  0.46346099  0.45419478    -0.22700
C335        C  0.96191269  0.51902832  0.54576705    -0.22700
C336        C  0.95923151  0.46834847  0.54580070    -0.22700
C337        C  0.00781216  0.57759856  0.47357269    -0.18000
C338        C  0.99146363  0.58095343  0.52754933    -0.18000
C339        C  0.98087006  0.40220437  0.52758099    -0.18000
C340        C  0.99464099  0.39863263  0.47345996    -0.18000
H341        H  0.04208635  0.66805108  0.48654995     0.14900
H342        H  0.03309129  0.67003792  0.51581786     0.14900
H343        H  0.01409459  0.30443053  0.48673802     0.14900
H344        H  0.00764029  0.30672745  0.51596735     0.14900
H345        H  0.98898533  0.53743501  0.44460924     0.13200
H346        H  0.98225570  0.44053488  0.44447783     0.13200
H347        H  0.95328848  0.54327624  0.55506552     0.13200
H348        H  0.94804036  0.44583388  0.55511962     0.13200
H349        H  0.97781400  0.53286355  0.50004392     0.26400
H350        H  0.97264620  0.44964398  0.50000362     0.26400
N351        N  0.40300672  0.99010516  0.50035616    -0.36300
N352        N  0.48031953  0.99078009  0.47787230    -0.56900
N353        N  0.55313814  0.98831357  0.50090194    -0.36300
N354        N  0.47564780  0.99045957  0.52352347    -0.56900
C355        C  0.37779045  0.00349997  0.48813231     0.27200
C356        C  0.37508285  0.00336728  0.51226041     0.27200
C357        C  0.58106692  0.00165948  0.48904089     0.27200
C358        C  0.57873452  0.00008331  0.51326762     0.27200
C359        C  0.44088199  0.97861541  0.46953096     0.35900
C360        C  0.52088733  0.97922695  0.46970785     0.35900
C361        C  0.43467198  0.98031825  0.53164773     0.35900
C362        C  0.51486141  0.97809891  0.53195981     0.35900
C363        C  0.33354671  0.02612505  0.49229351    -0.21600
C364        C  0.33180638  0.02597343  0.50758122    -0.21600
C365        C  0.62477780  0.02278819  0.49392710    -0.21600
C366        C  0.62335160  0.02171272  0.50925395    -0.21600
C367        C  0.45635217  0.95860890  0.45603359    -0.22700
C368        C  0.50729056  0.95930088  0.45610993    -0.22700
C369        C  0.44778567  0.96165975  0.54535652    -0.22700
C370        C  0.49870204  0.96002424  0.54553595    -0.22700
C371        C  0.39170080  0.99091328  0.47344076    -0.18000
C372        C  0.38591187  0.99096749  0.52707019    -0.18000
C373        C  0.56476852  0.98672318  0.52788773    -0.18000
C374        C  0.56955770  0.99071647  0.47404965    -0.18000
H375        H  0.30494367  0.04009032  0.48506245     0.14900
H376        H  0.30161986  0.03973368  0.51445611     0.14900
H377        H  0.65509585  0.03621307  0.48715646     0.14900
H378        H  0.65239115  0.03415874  0.51660224     0.14900
H379        H  0.43336751  0.94630297  0.44693335     0.13200
H380        H  0.53148697  0.94727083  0.44713174     0.13200
H381        H  0.42328448  0.95064443  0.55429962     0.13200
H382        H  0.52116298  0.94747262  0.55468189     0.13200
H383        H  0.43398455  0.96706267  0.50049752     0.26400
H384        H  0.52168449  0.96619457  0.50060693     0.26400
C385        C  0.00815566  0.44470562  0.26014680     0.86800
C386        C  0.96255339  0.44770191  0.25012684    -0.53500
C387        C  0.96042800  0.48878224  0.24151969     0.09700
C388        C  0.00496454  0.52364799  0.24335628     0.20600
C389        C  0.05212651  0.44926375  0.24906839    -0.54200
C390        C  0.05046409  0.49033845  0.24022512     0.09800
C391        C  0.00902605  0.49389579  0.26879087    -0.53700
C392        C  0.00757700  0.53518304  0.26014823     0.10300
H393        H  0.93401857  0.41950597  0.24986428     0.14900
H394        H  0.00277834  0.55679531  0.23620033     0.00600
H395        H  0.08204659  0.42285376  0.24784413     0.15200
H396        H  0.01034544  0.49583843  0.28084349     0.15000
C397        C  0.98834777  0.79837639  0.31306125    -0.11700
C398        C  0.01852126  0.80181062  0.30026690     0.03800
C399        C  0.02049684  0.76242764  0.29004402    -0.12200
C400        C  0.99257287  0.71952131  0.29239054     0.18600
C401        C  0.96171262  0.71657977  0.30503501    -0.09300
C402        C  0.95949214  0.75597298  0.31516901    -0.02200
H403        H  0.04433440  0.76497379  0.28034457     0.05200
C404        C  0.99949242  0.67619210  0.28245335     0.20600
H405        H  0.93616391  0.75284753  0.32496434     0.10300
C406        C  0.03957163  0.64447623  0.28500382    -0.15600
C407        C  0.04441576  0.59983344  0.27718695     0.03300
C408        C  0.00822307  0.58581819  0.26672892    -0.10900
C409        C  0.97023279  0.61945544  0.26337071    -0.01000
C410        C  0.96555245  0.66435527  0.27117998    -0.06100
H411        H  0.06664746  0.65402208  0.29336929     0.06300
H412        H  0.94311306  0.61015658  0.25506036     0.09700
Br413      Br  0.92378788  0.65849314  0.30928858    -0.05800
Br414      Br  0.05601106  0.86018306  0.29602459    -0.02800
Br415      Br  0.10232143  0.56050074  0.28082332     0.00100
Br416      Br  0.91184982  0.70787589  0.26639845    -0.04300
C417        C  0.99220041  0.18494541  0.31675135    -0.11700
C418        C  0.95696710  0.19393584  0.30557717     0.03800
C419        C  0.95973210  0.23702567  0.29703804    -0.12200
C420        C  0.99721375  0.27193538  0.29942297     0.18600
C421        C  0.03130291  0.26397085  0.31095451    -0.09300
C422        C  0.02895847  0.22062877  0.31935359    -0.02200
H423        H  0.93316301  0.24279007  0.28824930     0.05200
C424        C  0.00085392  0.31560182  0.28952716     0.20600
H425        H  0.05574087  0.21520717  0.32809382     0.10300
C426        C  0.96377252  0.35188606  0.28997800    -0.15600
C427        C  0.96574056  0.39317723  0.28065766     0.03300
C428        C  0.00596992  0.39943495  0.27049858    -0.10900
C429        C  0.04276833  0.36209740  0.27009727    -0.01000
C430        C  0.04006372  0.32056505  0.27927952    -0.06100
H431        H  0.93288907  0.34797410  0.29763477     0.06300
H432        H  0.07381189  0.36367536  0.26256555     0.09700
Br433      Br  0.08089384  0.31186077  0.31591249    -0.05800
Br434      Br  0.90630516  0.14729368  0.30079995    -0.02800
Br435      Br  0.91100976  0.43877248  0.28235153     0.00100
Br436      Br  0.08946672  0.26984344  0.27677745    -0.04300
C437        C  0.98000133  0.17734893  0.40408569    -0.11700
C438        C  0.94828960  0.17509384  0.41654921     0.03800
C439        C  0.95001455  0.21226055  0.42746320    -0.12200
C440        C  0.98203907  0.25282051  0.42600073     0.18600
C441        C  0.01253424  0.25579119  0.41322666    -0.09300
C442        C  0.01177862  0.21791814  0.40254645    -0.02200
H443        H  0.92686120  0.20902284  0.43728919     0.05200
C444        C  0.98471412  0.29014470  0.43820585     0.20600
H445        H  0.03589424  0.22039672  0.39290347     0.10300
C446        C  0.03024417  0.29871059  0.44525867    -0.15600
C447        C  0.03426227  0.33374991  0.45672138     0.03300
C448        C  0.99182300  0.35935566  0.46180196    -0.10900
C449        C  0.94614701  0.35015459  0.45499931    -0.01000
C450        C  0.94244717  0.31660093  0.44314354    -0.06100
H451        H  0.06300275  0.27848976  0.44168903     0.06300
H452        H  0.91353880  0.37054710  0.45861451     0.09700
Br453      Br  0.05464891  0.31142602  0.40950436    -0.05800
Br454      Br  0.90471637  0.12031939  0.41973591    -0.02800
Br455      Br  0.09858994  0.34673415  0.46474334     0.00100
Br456      Br  0.87962740  0.31117870  0.43343123    -0.04300
C457        C  0.98617772  0.80108192  0.40629665    -0.11700
C458        C  0.95700747  0.75791746  0.40589615     0.03800
C459        C  0.96330334  0.72163265  0.41670477    -0.12200
C460        C  0.99670285  0.72823193  0.42841748     0.18600
C461        C  0.02529381  0.77168366  0.42897819    -0.09300
C462        C  0.02051355  0.80719174  0.41781593    -0.02200
H463        H  0.94147490  0.68816809  0.41607864     0.05200
C464        C  0.99993973  0.68998868  0.44010648     0.20600
H465        H  0.04292845  0.84029556  0.41831766     0.10300
C466        C  0.04477178  0.66451673  0.44236067    -0.15600
C467        C  0.04845571  0.62817542  0.45332271     0.03300
C468        C  0.00684330  0.61691361  0.46216841    -0.10900
C469        C  0.96214559  0.64197852  0.45985288    -0.01000
C470        C  0.95831246  0.67806859  0.44892344    -0.06100
H471        H  0.07686234  0.67281703  0.43553689     0.06300
H472        H  0.92991996  0.63310406  0.46655458     0.09700
Br473      Br  0.06908603  0.78550971  0.44519120    -0.05800
Br474      Br  0.90943746  0.74486418  0.39063250    -0.02800
Br475      Br  0.11058852  0.59483906  0.45590177     0.00100
Br476      Br  0.89549517  0.71063447  0.44679990    -0.04300
C477        C  0.35290063  0.99021563  0.46188744    -0.11700
C478        C  0.35508908  0.02154124  0.44945214     0.03800
C479        C  0.31774800  0.01945698  0.43883115    -0.12200
C480        C  0.27719085  0.98798375  0.44072460     0.18600
C481        C  0.27389212  0.95813331  0.45338447    -0.09300
C482        C  0.31207563  0.95877492  0.46373799    -0.02200
H483        H  0.31982454  0.04308760  0.42918438     0.05200
C484        C  0.23892154  0.98655877  0.42924918     0.20600
H485        H  0.30958071  0.93531023  0.47341495     0.10300
C486        C  0.24294848  0.95126782  0.41787894    -0.15600
C487        C  0.20851431  0.94985350  0.40640787     0.03300
C488        C  0.16868593  0.98400656  0.40639199    -0.10900
C489        C  0.16518069  0.01974547  0.41774983    -0.01000
C490        C  0.20001381  0.02115576  0.42916438    -0.06100
H491        H  0.27367069  0.92534727  0.41778603     0.06300
H492        H  0.13499337  0.04626347  0.41782903     0.09700
Br493      Br  0.21710540  0.91766179  0.45721547    -0.05800
Br494      Br  0.40634159  0.06981804  0.44690394    -0.02800
Br495      Br  0.22133113  0.90342431  0.39055451     0.00100
Br496      Br  0.19338686  0.07052146  0.44447669    -0.04300
C497        C  0.60913704  0.99248433  0.46241164    -0.11700
C498        C  0.64928765  0.95905324  0.46237974     0.03800
C499        C  0.68515119  0.96095393  0.45108653    -0.12200
C500        C  0.68121584  0.99494613  0.43944283     0.18600
C501        C  0.63982747  0.02695348  0.43910326    -0.09300
C502        C  0.60483189  0.02617001  0.45067719    -0.02200
H503        H  0.71593859  0.93515875  0.45125190     0.05200
C504        C  0.71949059  0.99436593  0.42747995     0.20600
H505        H  0.57329901  0.05102911  0.45032414     0.10300
C506        C  0.72671654  0.95105831  0.41905379    -0.15600
C507        C  0.76335340  0.94811783  0.40795897     0.03300
C508        C  0.79307862  0.98984193  0.40479974    -0.10900
C509        C  0.78603500  0.03294836  0.41343370    -0.01000
C510        C  0.75055224  0.03512086  0.42485875    -0.06100
H511        H  0.70375075  0.91909786  0.42119319     0.06300
H512        H  0.80908115  0.06494552  0.41158529     0.09700
Br513      Br  0.62718230  0.06943484  0.42255696    -0.05800
Br514      Br  0.65482649  0.90779499  0.47688058    -0.02800
Br515      Br  0.76966478  0.88588760  0.39768001     0.00100
Br516      Br  0.74868316  0.09314245  0.43728284    -0.04300
C517        C  0.16009095  0.99281485  0.59493839    -0.11700
C518        C  0.19268019  0.95219625  0.59266109     0.03800
C519        C  0.22641761  0.95255736  0.58078784    -0.12200
C520        C  0.22819753  0.99229471  0.57094247     0.18600
C521        C  0.19380791  0.03117941  0.57258490    -0.09300
C522        C  0.16059034  0.03150457  0.58459713    -0.02200
H523        H  0.25240621  0.92218537  0.57944439     0.05200
C524        C  0.26770213  0.99325792  0.55948509     0.20600
H525        H  0.13492280  0.06215891  0.58578620     0.10300
C526        C  0.26679471  0.95897294  0.54772219    -0.15600
C527        C  0.30503379  0.95745551  0.53713394     0.03300
C528        C  0.34490750  0.99086805  0.53821123    -0.10900
C529        C  0.34583160  0.02493534  0.55003646    -0.01000
C530        C  0.30797628  0.02596641  0.56071634    -0.06100
H531        H  0.23649011  0.93298544  0.54687950     0.06300
H532        H  0.37647141  0.05046032  0.55103823     0.09700
Br533      Br  0.19035910  0.08402242  0.55853285    -0.05800
Br534      Br  0.19576750  0.89604494  0.60556320    -0.02800
Br535      Br  0.30216702  0.90779386  0.52180559     0.00100
Br536      Br  0.31428783  0.07079129  0.57722318    -0.04300
C537        C  0.60384850  0.98274560  0.53941862    -0.11700
C538        C  0.64335517  0.94870224  0.53792840     0.03800
C539        C  0.68048831  0.94724509  0.54868110    -0.12200
C540        C  0.67770401  0.97755381  0.56138637     0.18600
C541        C  0.63672121  0.00946322  0.56329607    -0.09300
C542        C  0.60093461  0.01274849  0.55220081    -0.02200
H543        H  0.71148998  0.92210496  0.54718104     0.05200
C544        C  0.71856937  0.97709049  0.57227782     0.20600
H545        H  0.57019008  0.03823479  0.55365931     0.10300
C546        C  0.74619373  0.02029791  0.57441889    -0.15600
C547        C  0.78384589  0.02253948  0.58498910     0.03300
C548        C  0.79429983  0.98085924  0.59382526    -0.10900
C549        C  0.76764995  0.93701395  0.59124891    -0.01000
C550        C  0.73031514  0.93477619  0.58055619    -0.06100
H551        H  0.73831772  0.05260985  0.56778804     0.06300
H552        H  0.77496155  0.90439443  0.59776385     0.09700
Br553      Br  0.62658596  0.04710894  0.58124173    -0.05800
Br554      Br  0.64685973  0.90166062  0.52186303    -0.02800
Br555      Br  0.82065217  0.08300404  0.58612902     0.00100
Br556      Br  0.69527399  0.87366947  0.57812528    -0.04300
C557        C  0.97932516  0.36422814  0.53942727    -0.11700
C558        C  0.02026803  0.35643896  0.54874265     0.03800
C559        C  0.01826022  0.31995582  0.55965675    -0.12200
C560        C  0.97596032  0.29052516  0.56135878     0.18600
C561        C  0.93510557  0.29811198  0.55198705    -0.09300
C562        C  0.93698627  0.33484636  0.54112579    -0.02200
H563        H  0.04990053  0.31427028  0.56678833     0.05200
C564        C  0.97504459  0.25225257  0.57300670     0.20600
H565        H  0.90556136  0.34027872  0.53389464     0.10300
C566        C  0.94555312  0.25976311  0.58572376    -0.15600
C567        C  0.94371143  0.22433493  0.59695605     0.03300
C568        C  0.97190084  0.18051186  0.59555376    -0.10900
C569        C  0.00217698  0.17346601  0.58296775    -0.01000
C570        C  0.00360594  0.20874921  0.57166993    -0.06100
H571        H  0.92410667  0.29350981  0.58694045     0.06300
H572        H  0.02399182  0.13993703  0.58178167     0.09700
Br573      Br  0.87692264  0.25784519  0.55328420    -0.05800
Br574      Br  0.08011420  0.39379229  0.54659614    -0.02800
Br575      Br  0.90472717  0.23933292  0.61435541     0.00100
Br576      Br  0.04341584  0.19522370  0.55434662    -0.04300
C577        C  0.99276161  0.62003824  0.53931613    -0.11700
C578        C  0.03087406  0.62132741  0.54994090     0.03800
C579        C  0.03054944  0.65773759  0.56109091    -0.12200
C580        C  0.99244171  0.69303655  0.56190031     0.18600
C581        C  0.95466702  0.69221376  0.55118225    -0.09300
C582        C  0.95505177  0.65588583  0.53999339    -0.02200
H583        H  0.05992614  0.65833230  0.56922646     0.05200
C584        C  0.99281370  0.73067725  0.57392656     0.20600
H585        H  0.92572225  0.65536716  0.53184415     0.10300
C586        C  0.02523848  0.77088416  0.57290205    -0.15600
C587        C  0.02536929  0.80802640  0.58384611     0.03300
C588        C  0.99241152  0.80519158  0.59607791    -0.10900
C589        C  0.96023087  0.76470698  0.59710024    -0.01000
C590        C  0.96069175  0.72732215  0.58626531    -0.06100
H591        H  0.04997102  0.77376366  0.56341215     0.06300
H592        H  0.93516323  0.76168346  0.60650579     0.09700
Br593      Br  0.90230351  0.74040513  0.55136382    -0.05800
Br594      Br  0.08423749  0.57428776  0.54955026    -0.02800
Br595      Br  0.06878268  0.86320210  0.58086277     0.00100
Br596      Br  0.91784024  0.67166978  0.58895041    -0.04300
C597        C  0.08757898  0.49810484  0.22807158    -0.11700
C598        C  0.11428443  0.54254865  0.22634282     0.03800
C599        C  0.15392179  0.54465872  0.21616296    -0.12200
C600        C  0.16671953  0.50367251  0.20722144     0.18600
C601        C  0.13738998  0.46080131  0.20809436    -0.09300
C602        C  0.09881810  0.45814821  0.21852763    -0.02200
H603        H  0.17600856  0.57794170  0.21560614     0.05200
C604        C  0.21330765  0.50433673  0.19822425     0.20600
H605        H  0.07778958  0.42423818  0.21932863     0.10300
C606        C  0.25119315  0.47062433  0.20164293    -0.15600
C607        C  0.29610937  0.47002225  0.19373925     0.03300
C608        C  0.30388498  0.50347243  0.18200710    -0.10900
C609        C  0.26652974  0.53813649  0.17884405    -0.01000
C610        C  0.22163484  0.53883834  0.18681673    -0.06100
H611        H  0.24604046  0.44501973  0.21071600     0.06300
H612        H  0.27188298  0.56434838  0.16994524     0.09700
Br613      Br  0.14818603  0.40491731  0.19518592    -0.05800
Br614      Br  0.10129101  0.60047285  0.23815633    -0.02800
Br615      Br  0.34671581  0.42544586  0.20035130     0.00100
Br616      Br  0.17243689  0.58655413  0.18134058    -0.04300
C617        C  0.91860163  0.49742221  0.23132794    -0.11700
C618        C  0.91065890  0.46629007  0.21895038     0.03800
C619        C  0.86782824  0.47183290  0.21044571    -0.12200
C620        C  0.83244319  0.50808354  0.21410157     0.18600
C621        C  0.84059292  0.53956731  0.22636874    -0.09300
C622        C  0.88345089  0.53400718  0.23487914    -0.02200
H623        H  0.86186559  0.44752180  0.20100671     0.05200
C624        C  0.78697281  0.51166589  0.20510108     0.15800
H625        H  0.88826191  0.55699023  0.24462915     0.10300
C626        C  0.74733883  0.47971041  0.20803044    -0.15600
C627        C  0.70480724  0.48035371  0.19919769     0.03300
C628        C  0.70139682  0.51362498  0.18728075    -0.10900
C629        C  0.74078626  0.54621458  0.18454572    -0.01000
C630        C  0.78355942  0.54503946  0.19324788    -0.06100
H631        H  0.74968732  0.45395854  0.21715725     0.06300
H632        H  0.73895099  0.57170740  0.17534557     0.09700
Br633      Br  0.79334770  0.58926927  0.23221135    -0.05800
Br634      Br  0.95714766  0.41559989  0.21328356    -0.02800
Br635      Br  0.65162822  0.43643520  0.20416081     0.00100
Br636      Br  0.83730315  0.58814737  0.18824418    -0.04300
C637        C  0.52452919  0.32702036  0.09388726    -0.11700
C638        C  0.54773189  0.33663010  0.08014947     0.03800
C639        C  0.55039571  0.29952554  0.06924026    -0.12200
C640        C  0.53009272  0.25275711  0.07184459     0.18600
C641        C  0.50631369  0.24335846  0.08550190    -0.09300
C642        C  0.50346314  0.28051465  0.09638291    -0.02200
H643        H  0.56792632  0.30725879  0.05864573     0.05200
C644        C  0.53262853  0.21463906  0.06003551     0.20600
H645        H  0.48539362  0.27286035  0.10690277     0.10300
C646        C  0.57102094  0.17952518  0.06009663    -0.15600
C647        C  0.57309845  0.14191048  0.04931916     0.03300
C648        C  0.53606376  0.13893402  0.03841418    -0.10900
C649        C  0.49855367  0.17493715  0.03812655    -0.01000
C650        C  0.49668660  0.21268475  0.04881500    -0.06100
H651        H  0.59920437  0.18127486  0.06858981     0.06300
H652        H  0.47006752  0.17303135  0.02972339     0.09700
Br653      Br  0.47694408  0.18049082  0.08966310    -0.05800
Br654      Br  0.57345167  0.40065274  0.07546624    -0.02800
Br655      Br  0.62732688  0.09596391  0.04968694     0.00100
Br656      Br  0.44384588  0.26016108  0.04793405    -0.04300
C657        C  0.51367235  0.88228010  0.04038428    -0.11700
C658        C  0.47208866  0.85175345  0.04246441     0.03800
C659        C  0.47234631  0.81581629  0.05359741    -0.12200
C660        C  0.51401347  0.80916114  0.06263970     0.18600
C661        C  0.55602577  0.83897304  0.06031538    -0.09300
C662        C  0.55541868  0.87544075  0.04935378    -0.02200
H663        H  0.44006277  0.79270372  0.05514601     0.05200
C664        C  0.51324978  0.77064093  0.07429728     0.20600
H665        H  0.58778887  0.89836563  0.04772642     0.10300
C666        C  0.54481685  0.72941052  0.07294179    -0.15600
C667        C  0.54533987  0.69266228  0.08382571     0.03300
C668        C  0.51289432  0.69617140  0.09612266    -0.10900
C669        C  0.48104662  0.73713262  0.09741935    -0.01000
C670        C  0.48148268  0.77451557  0.08675819    -0.06100
H671        H  0.56918467  0.72586545  0.06336841     0.06300
H672        H  0.45632476  0.74053457  0.10691779     0.09700
Br673      Br  0.61475049  0.83174263  0.07200043    -0.05800
Br674      Br  0.41437308  0.85789997  0.03031606    -0.02800
Br675      Br  0.58923131  0.63732349  0.08102535     0.00100
Br676      Br  0.43972695  0.83116068  0.09006774    -0.04300
C677        C  0.51961603  0.32430612  0.90722289    -0.11700
C678        C  0.55694883  0.29004331  0.91118236     0.03800
C679        C  0.54971662  0.25896487  0.92336867    -0.12200
C680        C  0.50586016  0.26070681  0.93177119     0.18600
C681        C  0.46905745  0.29538756  0.92812334    -0.09300
C682        C  0.47605965  0.32662053  0.91593622    -0.02200
H683        H  0.57789606  0.23185078  0.92601368     0.05200
C684        C  0.49820643  0.22267408  0.94331502     0.20600
H685        H  0.44692499  0.35255549  0.91317086     0.10300
C686        C  0.50673225  0.23339785  0.95829653    -0.15600
C687        C  0.50507398  0.19581203  0.96899328     0.03300
C688        C  0.50197584  0.14509866  0.96442980    -0.10900
C689        C  0.48183304  0.13775369  0.95012142    -0.01000
C690        C  0.48215627  0.17511667  0.93945819    -0.06100
H691        H  0.51256843  0.27137467  0.96175040     0.06300
H692        H  0.46426462  0.10352190  0.94709108     0.09700
Br693      Br  0.40802530  0.30010520  0.93908783    -0.05800
Br694      Br  0.61650332  0.27922532  0.89983809    -0.02800
Br695      Br  0.49011793  0.21895259  0.98883155     0.00100
Br696      Br  0.46012506  0.15972567  0.91974005    -0.04300
C697        C  0.51245810  0.68802098  0.90833615    -0.11700
C698        C  0.54859019  0.68562532  0.91957601     0.03800
C699        C  0.55026259  0.72234162  0.93063871    -0.12200
C700        C  0.51647098  0.76185451  0.93070616     0.18600
C701        C  0.48055643  0.76441019  0.91944526    -0.09300
C702        C  0.47833633  0.72732167  0.90852702    -0.02200
H703        H  0.57794108  0.71998978  0.93926435     0.05200
C704        C  0.51981250  0.80070918  0.94236388     0.20600
H705        H  0.45083351  0.73012426  0.89986760     0.10300
C706        C  0.56084251  0.83245491  0.94254789    -0.15600
C707        C  0.56388712  0.87104615  0.95299033     0.03300
C708        C  0.52451268  0.87939585  0.96312004    -0.10900
C709        C  0.48433017  0.84656099  0.96319942    -0.01000
C710        C  0.48234803  0.80683556  0.95320164    -0.06100
H711        H  0.59057324  0.82717389  0.93453094     0.06300
H712        H  0.45479624  0.85137314  0.97131104     0.09700
Br713      Br  0.43575995  0.81943802  0.91800847    -0.05800
Br714      Br  0.59497819  0.63186504  0.92080034    -0.02800
Br715      Br  0.62297024  0.91023843  0.95327250     0.00100
Br716      Br  0.42923784  0.76040945  0.95529198    -0.04300
C717        C  0.96348241  0.19497203  0.68432544    -0.11700
C718        C  0.93317664  0.23691403  0.68198831     0.03800
C719        C  0.93754619  0.27859189  0.69127439    -0.12200
C720        C  0.97208825  0.27965068  0.70283394     0.18600
C721        C  0.00151182  0.23745418  0.70537617    -0.09300
C722        C  0.99735848  0.19588360  0.69608834    -0.02200
H723        H  0.91508477  0.31100902  0.68914726     0.05200
C724        C  0.97876173  0.32572269  0.71167441     0.20600
H725        H  0.02085731  0.16406591  0.69804603     0.10300
C726        C  0.94290218  0.33998312  0.72225047    -0.15600
C727        C  0.95000149  0.38165428  0.73139092     0.03300
C728        C  0.99391096  0.40961457  0.73009569    -0.10900
C729        C  0.02889827  0.39599199  0.71916579    -0.01000
C730        C  0.02127350  0.35510297  0.70985853    -0.06100
H731        H  0.90983517  0.31788397  0.72364860     0.06300
H732        H  0.06252693  0.41732200  0.71788699     0.09700
Br733      Br  0.04782583  0.23496071  0.72143708    -0.05800
Br734      Br  0.88899811  0.24190304  0.66545784    -0.02800
Br735      Br  0.90013138  0.39592711  0.74605473     0.00100
Br736      Br  0.06962078  0.34115342  0.69465033    -0.04300
C737        C  0.97919009  0.79939030  0.68602604    -0.11700
C738        C  0.93521028  0.78041681  0.69249173     0.03800
C739        C  0.93690567  0.73667837  0.70076820    -0.12200
C740        C  0.98177296  0.71146875  0.70286986     0.18600
C741        C  0.02546987  0.73056607  0.69663190    -0.09300
C742        C  0.02396595  0.77394012  0.68835468    -0.02200
H743        H  0.90322385  0.72263754  0.70578174     0.05200
C744        C  0.98363070  0.66701397  0.71233671     0.20600
H745        H  0.05829738  0.78723180  0.68362879     0.10300
C746        C  0.98975757  0.62012016  0.70576522    -0.15600
C747        C  0.99793632  0.57826024  0.71452999     0.03300
C748        C  0.00074064  0.58318654  0.73010860    -0.10900
C749        C  0.99393545  0.63005525  0.73662982    -0.01000
C750        C  0.98461913  0.67158671  0.72790898    -0.06100
H751        H  0.98958512  0.61635711  0.69376923     0.06300
H752        H  0.99572757  0.63427937  0.74859792     0.09700
Br753      Br  0.08856272  0.69923956  0.69945273    -0.05800
Br754      Br  0.87208672  0.81312371  0.69115091    -0.02800
Br755      Br  0.00872004  0.51618182  0.70463131     0.00100
Br756      Br  0.97522772  0.73423161  0.73767511    -0.04300
C757        C  0.31374435  0.49718865  0.81785550    -0.11700
C758        C  0.27863970  0.45828018  0.81790516     0.03800
C759        C  0.23897358  0.45862161  0.80790893    -0.12200
C760        C  0.23231401  0.49743235  0.79786683     0.18600
C761        C  0.26607723  0.53715783  0.79819294    -0.09300
C762        C  0.30622171  0.53667409  0.80805593    -0.02200
H763        H  0.21234169  0.42877581  0.80819990     0.05200
C764        C  0.18881741  0.49664766  0.78765605     0.20600
H765        H  0.33213189  0.56714589  0.80791724     0.10300
C766        C  0.15266847  0.53383550  0.78879805    -0.15600
C767        C  0.11120796  0.53446574  0.77946998     0.03300
C768        C  0.10363232  0.49605518  0.76882277    -0.10900
C769        C  0.14073251  0.45903751  0.76771375    -0.01000
C770        C  0.18243556  0.45901896  0.77694215    -0.06100
H771        H  0.15681976  0.56291025  0.79703812     0.06300
H772        H  0.13890117  0.42984938  0.75956465     0.09700
Br773      Br  0.25985429  0.59243258  0.78510797    -0.05800
Br774      Br  0.27867256  0.40593010  0.83218848    -0.02800
Br775      Br  0.06699096  0.58984788  0.78202215     0.00100
Br776      Br  0.23055351  0.40728755  0.77403034    -0.04300
C777        C  0.69989822  0.51418383  0.81287301    -0.11700
C778        C  0.69423499  0.50086832  0.79782454     0.03800
C779        C  0.73584486  0.49860164  0.78839970    -0.12200
C780        C  0.78321626  0.50964413  0.79382594     0.18600
C781        C  0.78821777  0.52540919  0.80872144    -0.09300
C782        C  0.74679110  0.52718629  0.81811583    -0.02200
H783        H  0.73137372  0.48751000  0.77689434     0.05200
C784        C  0.82726703  0.50389663  0.78401676     0.20600
H785        H  0.75126494  0.53834930  0.82961752     0.10300
C786        C  0.83405867  0.53573491  0.77195312    -0.15600
C787        C  0.87791010  0.53432190  0.76346195     0.03300
C788        C  0.91623655  0.50088583  0.76718973    -0.10900
C789        C  0.90786472  0.46743081  0.77880134    -0.01000
C790        C  0.86378231  0.46816977  0.78699658    -0.06100
H791        H  0.80574902  0.56282866  0.76942305     0.06300
H792        H  0.93589370  0.44025541  0.78150925     0.09700
Br793      Br  0.85068135  0.54587202  0.81670861    -0.05800
Br794      Br  0.63033713  0.48672407  0.78968609    -0.02800
Br795      Br  0.88359548  0.58126796  0.74774141     0.00100
Br796      Br  0.85494221  0.41906407  0.80204756    -0.04300
C797        C  0.56491569  0.99012691  0.73203432    -0.11700
C798        C  0.57206172  0.95174849  0.72145187     0.03800
C799        C  0.61633215  0.94889877  0.71330641    -0.12200
C800        C  0.65414327  0.98341779  0.71557689     0.18600
C801        C  0.64796222  0.02025579  0.72660344    -0.09300
C802        C  0.60369901  0.02322884  0.73476332    -0.02200
H803        H  0.62084769  0.92026650  0.70491099     0.05200
C804        C  0.69729332  0.98368196  0.70533092     0.20600
H805        H  0.59900167  0.05246023  0.74295936     0.10300
C806        C  0.70228902  0.02331479  0.69552912    -0.15600
C807        C  0.74151734  0.02532789  0.68534791     0.03300
C808        C  0.77706978  0.98678277  0.68481364    -0.10900
C809        C  0.77157531  0.94667450  0.69455232    -0.01000
C810        C  0.73207901  0.94480891  0.70472169    -0.06100
H811        H  0.67493916  0.05275244  0.69569374     0.06300
H812        H  0.79833147  0.91674483  0.69437766     0.09700
Br813      Br  0.69886003  0.06756299  0.73078607    -0.05800
Br814      Br  0.52395676  0.90078781  0.71806512    -0.02800
Br815      Br  0.74166516  0.08054829  0.67206838     0.00100
Br816      Br  0.72788554  0.88916234  0.71775123    -0.04300
C817        C  0.16653932  0.00520605  0.68761013    -0.11700
C818        C  0.19734051  0.96343806  0.68998262     0.03800
C819        C  0.23679166  0.96660134  0.69991920    -0.12200
C820        C  0.24631522  0.01021880  0.70785896     0.18600
C821        C  0.21532908  0.05151227  0.70579090    -0.09300
C822        C  0.17604655  0.04879889  0.69573160    -0.02200
H823        H  0.26073174  0.93477308  0.70136004     0.05200
C824        C  0.28996050  0.01190435  0.71775891     0.20600
H825        H  0.15266189  0.08101041  0.69437295     0.10300
C826        C  0.32939726  0.04337301  0.71434983    -0.15600
C827        C  0.37293556  0.04304644  0.72271640     0.03300
C828        C  0.37869719  0.00919587  0.73462110    -0.10900
C829        C  0.33756247  0.97943822  0.73832075    -0.01000
C830        C  0.29397530  0.98046422  0.73003842    -0.06100
H831        H  0.32651104  0.06803354  0.70496481     0.06300
H832        H  0.33777189  0.95540294  0.74777270     0.09700
Br833      Br  0.22419311  0.11183343  0.71679743    -0.05800
Br834      Br  0.18998354  0.90100340  0.67990601    -0.02800
Br835      Br  0.42252474  0.09034625  0.71704437     0.00100
Br836      Br  0.24031623  0.93883013  0.73622374    -0.04300
C837        C  0.49891650  0.09690589  0.76833811    -0.11700
C838        C  0.51760316  0.09298001  0.78293692     0.03800
C839        C  0.52579061  0.13574535  0.79148885    -0.12200
C840        C  0.51493373  0.18280842  0.78594118     0.18600
C841        C  0.49758366  0.18705599  0.77131763    -0.09300
C842        C  0.49026379  0.14453709  0.76263463    -0.02200
H843        H  0.53859629  0.13217472  0.80281374     0.05200
C844        C  0.51773222  0.22650674  0.79597728     0.20600
H845        H  0.47605884  0.14871952  0.75148613     0.10300
C846        C  0.55684185  0.26014522  0.79455048    -0.15600
C847        C  0.55967564  0.30209999  0.80379632     0.03300
C848        C  0.52292168  0.31072462  0.81485038    -0.10900
C849        C  0.48354180  0.27709825  0.81605264    -0.01000
C850        C  0.48078874  0.23543891  0.80678689    -0.06100
H851        H  0.58496519  0.25401177  0.78607426     0.06300
H852        H  0.45470126  0.28297862  0.82431983     0.09700
Br853      Br  0.47962782  0.24992144  0.76318811    -0.05800
Br854      Br  0.52734100  0.03103330  0.79268554    -0.02800
Br855      Br  0.61257344  0.34747043  0.79987082     0.00100
Br856      Br  0.42497662  0.19236952  0.80899871    -0.04300
C857        C  0.48789563  0.92474833  0.77343034    -0.11700
C858        C  0.52917956  0.89253620  0.77255111     0.03800
C859        C  0.53305094  0.85278514  0.78239994    -0.12200
C860        C  0.49668956  0.84451690  0.79330524     0.18600
C861        C  0.45734501  0.87855572  0.79485341    -0.09300
C862        C  0.45290815  0.91772168  0.78487118    -0.02200
H863        H  0.56384547  0.82720070  0.78124213     0.05200
C864        C  0.49957463  0.79925762  0.80252444     0.20600
H865        H  0.42154230  0.94264717  0.78594429     0.10300
C866        C  0.53739193  0.79444275  0.81302513    -0.15600
C867        C  0.54151675  0.75182474  0.82174339     0.03300
C868        C  0.50721928  0.71275068  0.81999293    -0.10900
C869        C  0.46965451  0.71771447  0.80937882    -0.01000
C870        C  0.46594564  0.76005706  0.80060117    -0.06100
H871        H  0.56358823  0.82426587  0.81454210     0.06300
H872        H  0.44338211  0.68806152  0.80770344     0.09700
Br873      Br  0.40905777  0.87336067  0.81050374    -0.05800
Br874      Br  0.57965424  0.89794244  0.75761601    -0.02800
Br875      Br  0.59305732  0.75111625  0.83632474     0.00100
Br876      Br  0.41563806  0.76158056  0.78565025    -0.04300
C877        C  0.14837326  0.48962603  0.03759845    -0.11700
C878        C  0.15851427  0.45051095  0.04733115     0.03800
C879        C  0.19743623  0.45474809  0.05742122    -0.12200
C880        C  0.22664219  0.49751970  0.05785393     0.18600
C881        C  0.21780721  0.53567390  0.04766224    -0.09300
C882        C  0.17863590  0.53161752  0.03768802    -0.02200
H883        H  0.20460327  0.42489919  0.06507567     0.05200
C884        C  0.26542038  0.50190472  0.06922687     0.20600
H885        H  0.17157326  0.56136708  0.02998977     0.10300
C886        C  0.30817318  0.47259126  0.06797273    -0.15600
C887        C  0.34446098  0.47404885  0.07897242     0.03300
C888        C  0.33781190  0.50494644  0.09154001    -0.10900
C889        C  0.29567007  0.53531847  0.09255261    -0.01000
C890        C  0.25934889  0.53368390  0.08157864    -0.06100
H891        H  0.31326029  0.44849663  0.05840111     0.06300
H892        H  0.29008024  0.55908535  0.10217225     0.09700
Br893      Br  0.25873077  0.59342070  0.04681204    -0.05800
Br894      Br  0.12062644  0.39071764  0.04701822    -0.02800
Br895      Br  0.40335211  0.43511389  0.07585672     0.00100
Br896      Br  0.20083111  0.57337375  0.08432832    -0.04300
C897        C  0.88981696  0.50052064  0.04141769    -0.11700
C898        C  0.87708274  0.45868741  0.04976467     0.03800
C899        C  0.84003015  0.46220729  0.06065540    -0.12200
C900        C  0.81510813  0.50706201  0.06331193     0.18600
C901        C  0.82784453  0.54896150  0.05493268    -0.09300
C902        C  0.86502781  0.54542240  0.04405468    -0.02200
H903        H  0.83053098  0.42984714  0.06707415     0.05200
C904        C  0.77668976  0.50947829  0.07507693     0.20600
H905        H  0.87441631  0.57761935  0.03754750     0.10300
C906        C  0.78619733  0.53624955  0.08815107    -0.15600
C907        C  0.75127395  0.53814390  0.09970250     0.03300
C908        C  0.70618284  0.51255530  0.09828223    -0.10900
C909        C  0.69694161  0.48528743  0.08529982    -0.01000
C910        C  0.73155520  0.48399069  0.07365812    -0.06100
H911        H  0.82116525  0.55529761  0.08941956     0.06300
H912        H  0.66224678  0.46578243  0.08410060     0.09700
Br913      Br  0.79418202  0.61104815  0.05758346    -0.05800
Br914      Br  0.90869652  0.39598441  0.04635826    -0.02800
Br915      Br  0.76836967  0.57341538  0.11751277     0.00100
Br916      Br  0.71481203  0.44869402  0.05582390    -0.04300
C917        C  0.13861712  0.49501934  0.96153739    -0.11700
C918        C  0.14050488  0.46040175  0.94977536     0.03800
C919        C  0.17865200  0.46285612  0.93923280    -0.12200
C920        C  0.21612376  0.49842382  0.94049130     0.18600
C921        C  0.21439496  0.53284638  0.95231408    -0.09300
C922        C  0.17558452  0.53115213  0.96264582    -0.02200
H923        H  0.17967412  0.43629660  0.93015871     0.05200
C924        C  0.25647477  0.49908892  0.92931520     0.20600
H925        H  0.17473887  0.55745341  0.97179075     0.10300
C926        C  0.26125723  0.54013297  0.92006360    -0.15600
C927        C  0.29802691  0.54180523  0.90907822     0.03300
C928        C  0.33043393  0.50094792  0.90695603    -0.10900
C929        C  0.32570186  0.45999676  0.91637829    -0.01000
C930        C  0.28937806  0.45896847  0.92754105    -0.06100
H931        H  0.23585848  0.57102460  0.92134466     0.06300
H932        H  0.35066417  0.42875810  0.91519577     0.09700
Br933      Br  0.26552578  0.58093290  0.95531981    -0.05800
Br934      Br  0.09369363  0.40747502  0.94814999    -0.02800
Br935      Br  0.29962189  0.60063633  0.89725494     0.00100
Br936      Br  0.28719315  0.40283622  0.94044710    -0.04300
C937        C  0.69932001  0.50661836  0.90724786    -0.11700
C938        C  0.69828299  0.46807569  0.91776433     0.03800
C939        C  0.73314685  0.46691655  0.92922411    -0.12200
C940        C  0.76933057  0.50368933  0.93051211     0.18600
C941        C  0.77061189  0.54202872  0.92001657    -0.09300
C942        C  0.73549383  0.54354207  0.90863981    -0.02200
H943        H  0.73183739  0.43730951  0.93725325     0.05200
C944        C  0.80637429  0.50050889  0.94256049     0.20600
H945        H  0.73734138  0.57309474  0.90061186     0.10300
C946        C  0.84177695  0.46238249  0.94212831    -0.15600
C947        C  0.87858419  0.45932693  0.95296526     0.03300
C948        C  0.88075400  0.49524815  0.96438240    -0.10900
C949        C  0.84428697  0.53233111  0.96511212    -0.01000
C950        C  0.80694911  0.53482307  0.95443082    -0.06100
H951        H  0.84098664  0.43512839  0.93324725     0.06300
H952        H  0.84501621  0.55951889  0.97401315     0.09700
Br953      Br  0.82121442  0.59167129  0.92031431    -0.05800
Br954      Br  0.64862183  0.41757966  0.91770147    -0.02800
Br955      Br  0.92440929  0.40494082  0.95191722     0.00100
Br956      Br  0.75673394  0.58472208  0.95675777    -0.04300
C957        C  0.78966355  0.97511405  0.31544441    -0.11700
C958        C  0.78724281  0.00016389  0.30184248     0.03800
C959        C  0.74351792  0.99968806  0.29363889    -0.12200
C960        C  0.70191700  0.97347899  0.29858304     0.18600
C961        C  0.70550286  0.94485497  0.31154003    -0.09300
C962        C  0.74913832  0.94611189  0.31993396    -0.02200
H963        H  0.74176711  0.02022704  0.28336726     0.05200
C964        C  0.65512195  0.97869620  0.29022960     0.20600
H965        H  0.75091263  0.92543454  0.33017604     0.10300
C966        C  0.63830911  0.93988185  0.28121410    -0.15600
C967        C  0.59813019  0.94654527  0.27160678     0.03300
C968        C  0.57440267  0.99331477  0.27078024    -0.10900
C969        C  0.59002991  0.03112364  0.28047065    -0.01000
C970        C  0.62977238  0.02417411  0.29008480    -0.06100
H971        H  0.65768523  0.90473561  0.28127058     0.06300
H972        H  0.57159643  0.06675788  0.28044900     0.09700
Br973      Br  0.65144804  0.90501138  0.31837589    -0.05800
Br974      Br  0.84372190  0.03239934  0.29343929    -0.02800
Br975      Br  0.58100870  0.89085727  0.25943801     0.00100
Br976      Br  0.64862081  0.07823656  0.30274338    -0.04300
C977        C  0.19667857  0.98663870  0.32012598    -0.11700
C978        C  0.24022316  0.96129495  0.32426573     0.03800
C979        C  0.28336064  0.96530849  0.31555619    -0.12200
C980        C  0.28436957  0.99517913  0.30287896     0.18600
C981        C  0.24127191  0.02161701  0.29900959    -0.09300
C982        C  0.19813481  0.01740789  0.30765898    -0.02200
H983        H  0.31643778  0.94536039  0.31875262     0.05200
C984        C  0.32963449  0.99634994  0.29338507     0.20600
H985        H  0.16519312  0.03758723  0.30446066     0.10300
C986        C  0.34246951  0.95440963  0.28493951    -0.15600
C987        C  0.38168104  0.95540451  0.27461643     0.03300
C988        C  0.40867969  0.99949064  0.27240142    -0.10900
C989        C  0.39796177  0.04017276  0.28182439    -0.01000
C990        C  0.35907086  0.03891285  0.29219020    -0.06100
H991        H  0.32074077  0.92103634  0.28605535     0.06300
H992        H  0.41940683  0.07378937  0.28092404     0.09700
Br993      Br  0.23875445  0.06230418  0.28165304    -0.05800
Br994      Br  0.24424561  0.92409254  0.34228208    -0.02800
Br995      Br  0.39364424  0.89570192  0.26372263     0.00100
Br996      Br  0.34740058  0.09635471  0.30438388    -0.04300
C997        C  0.49369672  0.10640074  0.23313877    -0.11700
C998        C  0.53521223  0.11714092  0.22388316     0.03800
C999        C  0.53683337  0.16083723  0.21570396    -0.12200
C1000       C  0.49784408  0.19490692  0.21628850     0.18600
C1001       C  0.45656684  0.18508790  0.22533396    -0.09300
C1002       C  0.45468537  0.14158182  0.23358800    -0.02200
H1003       H  0.56837519  0.16777593  0.20850489     0.05200
C1004       C  0.49908518  0.23805039  0.20632224     0.20600
H1005       H  0.42146657  0.13615587  0.23998524     0.10300
C1006       C  0.46546778  0.23997270  0.19456381    -0.15600
C1007       C  0.46691989  0.27835386  0.18429422     0.03300
C1008       C  0.50329128  0.31561739  0.18558984    -0.10900
C1009       C  0.53693755  0.31362423  0.19740086    -0.01000
C1010       C  0.53483158  0.27547602  0.20779379    -0.06100
H1011       H  0.43839087  0.21083192  0.19322907     0.06300
H1012       H  0.56464664  0.34217766  0.19866460     0.09700
Br1013     Br  0.40157547  0.23020337  0.22681065    -0.05800
Br1014     Br  0.59111109  0.07388901  0.22125365    -0.02800
Br1015     Br  0.42011076  0.27504895  0.16833960     0.00100
Br1016     Br  0.58043007  0.27678741  0.22403647    -0.04300
C1017       C  0.49341153  0.92073032  0.23061054    -0.11700
C1018       C  0.53682210  0.90538235  0.22300967     0.03800
C1019       C  0.53700873  0.86133859  0.21475041    -0.12200
C1020       C  0.49434531  0.83213236  0.21381524     0.18600
C1021       C  0.45121022  0.84716326  0.22157006    -0.09300
C1022       C  0.45069741  0.89191863  0.22943919    -0.02200
H1023       H  0.57034871  0.85024719  0.20880550     0.05200
C1024       C  0.49518862  0.78734508  0.20424094     0.20600
H1025       H  0.41637740  0.90487283  0.23432408     0.10300
C1026       C  0.52787779  0.74845246  0.20749207    -0.15600
C1027       C  0.53006253  0.70606606  0.19845354     0.03300
C1028       C  0.49819365  0.70166911  0.18618314    -0.10900
C1029       C  0.46610733  0.74084182  0.18283231    -0.01000
C1030       C  0.46536305  0.78392158  0.19148795    -0.06100
H1031       H  0.55184480  0.75117646  0.21706563     0.06300
H1032       H  0.44279295  0.73873820  0.17310383     0.09700
Br1033     Br  0.39251361  0.80738381  0.22214493    -0.05800
Br1034     Br  0.59667296  0.94319455  0.22327454    -0.02800
Br1035     Br  0.57624592  0.65484163  0.20350831     0.00100
Br1036     Br  0.42611056  0.83848155  0.18469268    -0.04300
loop_ 
_geom_bond_atom_site_label_1 
_geom_bond_atom_site_label_2 
_geom_bond_distance 
_geom_bond_site_symmetry_2 
_ccdc_geom_bond_type 
C1            C2   1.545       .  S
C1            C7   1.531       .  S
C1            C5   1.539       .  S
C1          C997   1.544       .  S
C2            H9   1.079       .  S
C2            C3   1.367       .  D
C3            C4   1.546   1_545  S
C3          C988   1.503   1_545  S
C4            C8   1.551       .  S
C4            C6   1.543   1_565  S
C4           H10   1.106       .  S
C5           H11   1.086       .  S
C5            C6   1.372       .  D
C6          C968   1.496   1_545  S
C7           H12   1.087       .  S
C7            C8   1.361   1_545  D
C8         C1017   1.482       .  S
N13          C18   1.352       .  A
N13          C17   1.354   1_554  A
N13          H45   1.039       .  S
N14          C21   1.350   1_455  A
N14          C22   1.350       .  A
N15          C20   1.351       .  A
N15          C19   1.351   1_554  A
N15          H46   1.039       .  S
N16          C23   1.350   1_455  A
N16          C24   1.350       .  A
C17          C25   1.387       .  A
C17          C33   1.415       .  A
C18          C34   1.413       .  A
C18          C26   1.387       .  A
C19          C27   1.387       .  A
C19          C36   1.412       .  A
C20          C35   1.410       .  A
C20          C28   1.387       .  A
C21          C33   1.412       .  A
C21          C29   1.386       .  A
C22          C36   1.411       .  A
C22          C30   1.386       .  A
C23          C31   1.386       .  A
C23          C34   1.411       .  A
C24          C32   1.386       .  A
C24          C35   1.412       .  A
C25          C26   1.376   1_556  A
C25          H37   1.082       .  S
C26          H38   1.082       .  S
C27          C28   1.375   1_556  A
C27          H39   1.082       .  S
C28          H40   1.083       .  S
C29          C30   1.374   1_655  A
C29          H41   1.082       .  S
C30          H42   1.082       .  S
C31          C32   1.375   1_655  A
C31          H43   1.082       .  S
C32          H44   1.082       .  S
C33         C948   1.490       .  S
C34         C897   1.481       .  S
C35         C877   1.480       .  S
C36         C917   1.483       .  S
C47          C48   1.548   1_545  S
C47          C53   1.534   1_545  S
C47          C51   1.532       .  S
C47         C828   1.541       .  S
C48          H55   1.081       .  S
C48          C49   1.367       .  D
C49          C50   1.543   1_565  S
C49         C857   1.493       .  S
C50          C54   1.543   1_545  S
C50          C52   1.550       .  S
C50          H56   1.109       .  S
C51          H57   1.086       .  S
C51          C52   1.368       .  D
C52         C837   1.498       .  S
C53          H58   1.086       .  S
C53          C54   1.364       .  D
C54         C797   1.484       .  S
C59          C60   1.549       .  S
C59          C65   1.537       .  S
C59          C63   1.538       .  S
C59         C768   1.551       .  S
C60          H67   1.081       .  S
C60          C61   1.367       .  D
C61          C62   1.541   1_455  S
C61         C728   1.491   1_455  S
C62          C66   1.543       .  S
C62          C64   1.543   1_655  S
C62          H68   1.110       .  S
C63          H69   1.086       .  S
C63          C64   1.367       .  D
C64         C748   1.485       .  S
C65          H70   1.086       .  S
C65          C66   1.369   1_455  D
C66         C788   1.492       .  S
N71          C76   1.358       .  A
N71          C75   1.352   1_554  A
N71         H103   1.039       .  S
N72          C79   1.355   1_545  A
N72          C80   1.361       .  A
N73          C78   1.352       .  A
N73          C77   1.352   1_554  A
N73         H104   1.044       .  S
N74          C81   1.349   1_545  A
N74          C82   1.347       .  A
C75          C83   1.390       .  A
C75          C91   1.420       .  A
C76          C92   1.416       .  A
C76          C84   1.384       .  A
C77          C85   1.387       .  A
C77          C94   1.413       .  A
C78          C93   1.407       .  A
C78          C86   1.385       .  A
C79          C91   1.423       .  A
C79          C87   1.383       .  A
C80          C94   1.434       .  A
C80          C88   1.390       .  A
C81          C89   1.386       .  A
C81          C92   1.410       .  A
C82          C90   1.386       .  A
C82          C93   1.407       .  A
C83          C84   1.373   1_556  A
C83          H95   1.082       .  S
C84          H96   1.082       .  S
C85          C86   1.380   1_556  A
C85          H97   1.082       .  S
C86          H98   1.082       .  S
C87          C88   1.370   1_565  A
C87          H99   1.081       .  S
C88         H100   1.079       .  S
C89          C90   1.377   1_565  A
C89         H101   1.082       .  S
C90         H102   1.082       .  S
C91         C708   1.494       .  S
C92         C657   1.491       .  S
C93         C648   1.483       .  S
C94         C688   1.542       .  S
C105        N123   1.351       .  A
C105        C142   1.463       .  S
C105        C937   1.486       .  S
N106        N123   1.327       .  A
N106        N128   1.319       .  A
N106       Co143   2.088       .  S
C107        N132   1.342       .  A
C107        H152   1.082       .  S
C107        C145   1.463       .  S
H108        C149   1.082       .  S
C109        N133   1.343       .  A
C109        H138   1.081       .  S
C109        C113   1.465       .  S
Co110       N128   2.096       .  S
Co110       N118   2.083       .  S
Co110       N150   2.086       .  S
Co110       N126   2.098       .  S
Co110      Cl154   2.457       .  S
N111        C149   1.343       .  A
N111        N118   1.321       .  A
N111       Co112   2.101       .  S
Co112       N115   2.076       .  S
Co112       N132   2.088       .  S
Co112       N119   2.112       .  S
Co112      Cl154   2.457       .  S
C113        N151   1.347       .  A
C113        C928   1.483       .  S
N114        N121   1.318       .  A
N114        N144   1.324       .  A
N114       Co147   2.087       .  S
N115        N133   1.319       .  A
N115        N151   1.321       .  A
N116        C145   1.352       .  A
N116        N126   1.327       .  A
H117        C142   1.081       .  S
N118        N139   1.325       .  A
N119        N137   1.321       .  A
N119        N124   1.330       .  A
C120        N124   1.358       .  A
C120        C148   1.461       .  S
C120        C757   1.496       .  S
N121        C136   1.342       .  A
N121       Co143   2.090       .  S
C122        N150   1.341       .  A
C122        H156   1.081       .  S
C122        C125   1.460       .  S
C125        N146   1.352       .  A
C125        C777   1.471       .  S
N126        N132   1.321       .  A
N127        C153   1.341       .  A
N127        N129   1.318       .  A
N127       Co143   2.084       .  S
N128        C142   1.344       .  A
N129        N157   1.325       .  A
N129       Co147   2.093       .  S
H130        C153   1.080       .  S
H131        C148   1.080       .  S
N133       Co147   2.089       .  S
N134        N146   1.326       .  A
N134        N150   1.320       .  A
N134       Co143   2.095       .  S
C135        N139   1.350       .  A
C135        C149   1.463       .  S
C135        C697   1.481       .  S
C136        H140   1.079       .  S
C136        C155   1.467       .  S
N137        C148   1.339       .  A
N137       Co147   2.086       .  S
C141        N157   1.355       .  A
C141        C153   1.464       .  S
C141        C848   1.489       .  S
Co143      Cl154   2.455       .  S
N144        C155   1.352       .  A
C145        C868   1.489       .  S
Co147      Cl154   2.450       .  S
C155        C677   1.489       .  S
C158        N176   1.353       .  A
C158        C195   1.460       .  S
C158        C628   1.478       .  S
N159        N176   1.326       .  A
N159        N181   1.320       .  A
N159       Co196   2.093       .  S
C160        N185   1.339       .  A
C160        H205   1.081       .  S
C160        C198   1.457       .  S
H161        C202   1.082       .  S
C162        N186   1.342       .  A
C162        H191   1.081       .  S
C162        C166   1.465       .  S
Co163       N181   2.083       .  S
Co163       N171   2.085       .  S
Co163       N203   2.079       .  S
Co163       N179   2.092       .  S
Co163      Cl207   2.450       .  S
N164        C202   1.339       .  A
N164        N171   1.320       .  A
N164       Co165   2.084       .  S
Co165       N168   2.090       .  S
Co165       N185   2.081       .  S
Co165       N172   2.086       .  S
Co165      Cl207   2.456       .  S
C166        N204   1.353       .  A
C166        C608   1.486       .  S
N167        N174   1.320       .  A
N167        N197   1.322       .  A
N167       Co200   2.074       .  S
N168        N186   1.319       .  A
N168        N204   1.326       .  A
N169        C198   1.352       .  A
N169        N179   1.327       .  A
H170        C195   1.082       .  S
N171        N192   1.324       .  A
N172        N190   1.319       .  A
N172        N177   1.325       .  A
C173        N177   1.351       .  A
C173        C201   1.457       .  S
C173        C888   1.472       .  S
N174        C189   1.343       .  A
N174       Co196   2.093       .  S
C175        N203   1.340       .  A
C175        H209   1.081       .  S
C175        C178   1.456       .  S
C178        N199   1.349       .  A
C178        C908   1.470       .  S
N179        N185   1.320       .  A
N180        C206   1.341       .  A
N180        N182   1.320       .  A
N180       Co196   2.086       .  S
N181        C195   1.340       .  A
N182        N210   1.325       .  A
N182       Co200   2.086       .  S
H183        C206   1.081       .  S
H184        C201   1.081       .  S
N186       Co200   2.092       .  S
N187        N199   1.325       .  A
N187        N203   1.320       .  A
N187       Co196   2.088       .  S
C188        N192   1.350       .  A
C188        C202   1.462       .  S
C188       C1028   1.474       .  S
C189        H193   1.082       .  S
C189        C208   1.463       .  S
N190        C201   1.338       .  A
N190       Co200   2.076       .  S
C194        N210   1.349       .  A
C194        C206   1.458       .  S
C194        C637   1.471       .  S
Co196      Cl207   2.451       .  S
N197        C208   1.347       .  A
C198        C668   1.476       .  S
Co200      Cl207   2.450       .  S
C208       C1008   1.478       .  S
C211        N229   1.349   1_545  A
C211        C248   1.467       .  S
C211        C817   1.489       .  S
N212        N229   1.322       .  A
N212        N234   1.319   1_565  A
N212       Co249   2.080       .  S
C213        N238   1.340       .  A
C213        H258   1.081       .  S
C213        C251   1.458       .  S
H214        C255   1.081       .  S
C215        N239   1.340       .  A
C215        H244   1.081       .  S
C215        C219   1.461       .  S
Co216       N234   2.091       .  S
Co216       N224   2.093   1_455  S
Co216       N256   2.092       .  S
Co216       N232   2.089   1_455  S
Co216      Cl260   2.454   1_445  S
N217        C255   1.343       .  A
N217        N224   1.321       .  A
N217       Co218   2.096       .  S
Co218       N221   2.089       .  S
Co218       N238   2.084       .  S
Co218       N225   2.094       .  S
Co218      Cl260   2.450   1_545  S
C219        N257   1.351   1_565  A
C219        C808   1.484       .  S
N220        N227   1.318   1_655  A
N220        N250   1.324       .  A
N220       Co253   2.082       .  S
N221        N239   1.320   1_545  A
N221        N257   1.324       .  A
N222        C251   1.350   1_455  A
N222        N232   1.326   1_455  A
H223        C248   1.081       .  S
N224        N245   1.326   1_655  A
N225        N243   1.319   1_545  A
N225        N230   1.325       .  A
C226        N230   1.353   1_565  A
C226        C254   1.462       .  S
C226        C548   1.486       .  S
N227        C242   1.339       .  A
N227       Co249   2.085       .  S
C228        N256   1.343       .  A
C228        H262   1.081       .  S
C228        C231   1.466   1_545  S
C231        N252   1.347       .  A
C231        C517   1.484       .  S
N232        N238   1.320       .  A
N233        C259   1.340       .  A
N233        N235   1.318   1_455  A
N233       Co249   2.081       .  S
N234        C248   1.343       .  A
N235        N263   1.325       .  A
N235       Co253   2.087       .  S
H236        C259   1.081       .  S
H237        C254   1.081       .  S
N239       Co253   2.081       .  S
N240        N252   1.323       .  A
N240        N256   1.319   1_565  A
N240       Co249   2.077       .  S
C241        N245   1.351   1_655  A
C241        C255   1.465       .  S
C241        C717   1.484       .  S
C242        H246   1.081       .  S
C242        C261   1.468   1_455  S
N243        C254   1.340       .  A
N243       Co253   2.080       .  S
C247        N263   1.352       .  A
C247        C259   1.459   1_655  S
C247        C588   1.478       .  S
Co249      Cl260   2.446   1_455  S
N250        C261   1.351       .  A
C251        C568   1.475       .  S
Co253      Cl260   2.455       .  S
C261        C737   1.489       .  S
C264        N282   1.355       .  A
C264        C301   1.462   1_655  S
C264        C417   1.488       .  S
N265        N282   1.328       .  A
N265        N287   1.322   1_655  A
N265       Co302   2.104       .  S
C266        N291   1.334       .  A
C266        H311   1.081       .  S
C266        C304   1.453       .  S
H267        C308   1.082       .  S
C268        N292   1.339       .  A
C268        H297   1.081       .  S
C268        C272   1.457       .  S
Co269       N287   2.087       .  S
Co269       N277   2.086       .  S
Co269       N309   2.079       .  S
Co269       N285   2.095       .  S
Co269      Cl313   2.452   1_445  S
N270        C308   1.344       .  A
N270        N277   1.321   1_565  A
N270       Co271   2.096       .  S
Co271       N274   2.089       .  S
Co271       N291   2.066       .  S
Co271       N278   2.090       .  S
Co271      Cl313   2.452   1_455  S
C272        N310   1.353   1_655  A
C272        C397   1.475       .  S
N273        N280   1.321   1_565  A
N273        N303   1.324       .  A
N273       Co306   2.075       .  S
N274        N292   1.321   1_455  A
N274        N310   1.327       .  A
N275        C304   1.353   1_545  A
N275        N285   1.326       .  A
H276        C301   1.082       .  S
N277        N298   1.325       .  A
N278        N296   1.318   1_455  A
N278        N283   1.325       .  A
C279        N283   1.350   1_655  A
C279        C307   1.462       .  S
C279        C457   1.479       .  S
N280        C295   1.344       .  A
N280       Co302   2.106       .  S
C281        N309   1.339       .  A
C281        H315   1.082       .  S
C281        C284   1.457   1_455  S
C284        N305   1.352       .  A
C284        C437   1.476       .  S
N285        N291   1.319   1_545  A
N286        C312   1.342       .  A
N286        N288   1.319   1_545  A
N286       Co302   2.092       .  S
N287        C301   1.340       .  A
N288        N316   1.325       .  A
N288       Co306   2.087       .  S
H289        C312   1.081       .  S
H290        C307   1.081       .  S
N292       Co306   2.087       .  S
N293        N305   1.327       .  A
N293        N309   1.320   1_655  A
N293       Co302   2.094       .  S
C294        N298   1.349   1_565  A
C294        C308   1.465       .  S
C294        C977   1.482       .  S
C295        H299   1.082       .  S
C295        C314   1.468   1_545  S
N296        C307   1.341       .  A
N296       Co306   2.079       .  S
C300        N316   1.352       .  A
C300        C312   1.464   1_565  S
C300        C508   1.491       .  S
Co302      Cl313   2.453   1_545  S
N303        C314   1.347       .  A
C304        C488   1.472       .  S
Co306      Cl313   2.455       .  S
C314        C957   1.479       .  S
N317        C322   1.355   1_655  A
N317        C321   1.353   1_655  A
N317        H349   1.033       .  S
N318        C325   1.352       .  A
N318        C326   1.353   1_455  A
N319        C324   1.354       .  A
N319        C323   1.355       .  A
N319        H350   1.033       .  S
N320        C327   1.352       .  A
N320        C328   1.351       .  A
C321        C329   1.386       .  A
C321        C337   1.415       .  A
C322        C338   1.418   1_455  A
C322        C330   1.387       .  A
C323        C331   1.386   1_655  A
C323        C340   1.418       .  A
C324        C339   1.418       .  A
C324        C332   1.387   1_655  A
C325        C337   1.414       .  A
C325        C333   1.386   1_455  A
C326        C340   1.415       .  A
C326        C334   1.387       .  A
C327        C335   1.386       .  A
C327        C338   1.415       .  A
C328        C336   1.386       .  A
C328        C339   1.415       .  A
C329        C330   1.377       .  A
C329        H341   1.083       .  S
C330        H342   1.082       .  S
C331        C332   1.376       .  A
C331        H343   1.082       .  S
C332        H344   1.082       .  S
C333        C334   1.370       .  A
C333        H345   1.082       .  S
C334        H346   1.082       .  S
C335        C336   1.373       .  A
C335        H347   1.082       .  S
C336        H348   1.082       .  S
C337        C468   1.484       .  S
C338        C577   1.491       .  S
C339        C557   1.487       .  S
C340        C448   1.490       .  S
N351        C356   1.351   1_565  A
N351        C355   1.349   1_565  A
N351        H383   1.041       .  S
N352        C359   1.348       .  A
N352        C360   1.348       .  A
N353        C358   1.351   1_565  A
N353        C357   1.354   1_565  A
N353        H384   1.041       .  S
N354        C361   1.352       .  A
N354        C362   1.350       .  A
C355        C363   1.387       .  A
C355        C371   1.410   1_545  A
C356        C372   1.409   1_545  A
C356        C364   1.386       .  A
C357        C365   1.386       .  A
C357        C374   1.416   1_545  A
C358        C373   1.416   1_545  A
C358        C366   1.388       .  A
C359        C371   1.409       .  A
C359        C367   1.387       .  A
C360        C374   1.409       .  A
C360        C368   1.386       .  A
C361        C369   1.385       .  A
C361        C372   1.411       .  A
C362        C370   1.388       .  A
C362        C373   1.414       .  A
C363        C364   1.376       .  A
C363        H375   1.082       .  S
C364        H376   1.082       .  S
C365        C366   1.380       .  A
C365        H377   1.082       .  S
C366        H378   1.082       .  S
C367        C368   1.375       .  A
C367        H379   1.082       .  S
C368        H380   1.082       .  S
C369        C370   1.375       .  A
C369        H381   1.082       .  S
C370        H382   1.082       .  S
C371        C477   1.481       .  S
C372        C528   1.488       .  S
C373        C537   1.489       .  S
C374        C497   1.492       .  S
C385        C386   1.534   1_455  S
C385        C391   1.536       .  S
C385        C389   1.550       .  S
C385        C428   1.546       .  S
C386        H393   1.087       .  S
C386        C387   1.361       .  D
C387        C388   1.540   1_655  S
C387        C617   1.479       .  S
C388        C392   1.543       .  S
C388        C390   1.543       .  S
C388        H394   1.110       .  S
C389        H395   1.081       .  S
C389        C390   1.373       .  D
C390        C597   1.494       .  S
C391        H396   1.086       .  S
C391        C392   1.367       .  D
C392        C408   1.488       .  S
C397        C398   1.409   1_655  A
C397        C402   1.403       .  A
C398        C399   1.403       .  A
C398       Br414   1.919       .  S
C399        C400   1.403   1_455  A
C399        H403   1.083       .  S
C400        C401   1.408       .  A
C400        C404   1.479       .  S
C401        C402   1.398       .  A
C401       Br413   1.919       .  S
C402        H405   1.083       .  S
C404        C406   1.400   1_655  A
C404        C410   1.408       .  A
C406        C407   1.398       .  A
C406        H411   1.084       .  S
C407        C408   1.412       .  A
C407       Br415   1.919       .  S
C408        C409   1.405   1_455  A
C409        C410   1.403       .  A
C409        H412   1.079       .  S
C410       Br416   1.918       .  S
C417        C418   1.411       .  A
C417        C422   1.407   1_655  A
C418        C419   1.403       .  A
C418       Br434   1.913       .  S
C419        C420   1.403       .  A
C419        H423   1.083       .  S
C420        C421   1.409   1_655  A
C420        C424   1.488   1_655  S
C421        C422   1.402       .  A
C421       Br433   1.919       .  S
C422        H425   1.083       .  S
C424        C426   1.399   1_455  A
C424        C430   1.406       .  A
C426        C427   1.403       .  A
C426        H431   1.084       .  S
C427        C428   1.426   1_655  A
C427       Br435   1.925       .  S
C428        C429   1.414       .  A
C429        C430   1.402       .  A
C429        H432   1.075       .  S
C430       Br436   1.921       .  S
C437        C438   1.408       .  A
C437        C442   1.403   1_655  A
C438        C439   1.401       .  A
C438       Br454   1.918       .  S
C439        C440   1.406       .  A
C439        H443   1.083       .  S
C440        C441   1.412   1_655  A
C440        C444   1.488       .  S
C441        C442   1.400       .  A
C441       Br453   1.920       .  S
C442        H445   1.084       .  S
C444        C446   1.407   1_655  A
C444        C450   1.411       .  A
C446        C447   1.400       .  A
C446        H451   1.083       .  S
C447        C448   1.408   1_455  A
C447       Br455   1.918       .  S
C448        C449   1.403       .  A
C449        C450   1.400       .  A
C449        H452   1.083       .  S
C450       Br456   1.919       .  S
C457        C458   1.411       .  A
C457        C462   1.405   1_655  A
C458        C459   1.398       .  A
C458       Br474   1.919       .  S
C459        C460   1.403       .  A
C459        H463   1.084       .  S
C460        C461   1.410   1_655  A
C460        C464   1.484       .  S
C461        C462   1.402       .  A
C461       Br473   1.920       .  S
C462        H465   1.084       .  S
C464        C466   1.407   1_655  A
C464        C470   1.411       .  A
C466        C467   1.402       .  A
C466        H471   1.083       .  S
C467        C468   1.408       .  A
C467       Br475   1.918       .  S
C468        C469   1.400   1_455  A
C469        C470   1.396       .  A
C469        H472   1.084       .  S
C470       Br476   1.919       .  S
C477        C478   1.410   1_565  A
C477        C482   1.405       .  A
C478        C479   1.395       .  A
C478       Br494   1.920       .  S
C479        C480   1.400   1_545  A
C479        H483   1.084       .  S
C480        C481   1.404       .  A
C480        C484   1.467       .  S
C481        C482   1.395       .  A
C481       Br493   1.918       .  S
C482        H485   1.084       .  S
C484        C486   1.397       .  A
C484        C490   1.404   1_565  A
C486        C487   1.395       .  A
C486        H491   1.084       .  S
C487        C488   1.415       .  A
C487       Br495   1.922       .  S
C488        C489   1.404   1_565  A
C489        C490   1.398       .  A
C489        H492   1.084       .  S
C490       Br496   1.918       .  S
C497        C498   1.409       .  A
C497        C502   1.406   1_565  A
C498        C499   1.400       .  A
C498       Br514   1.918       .  S
C499        C500   1.404       .  A
C499        H503   1.083       .  S
C500        C501   1.412   1_565  A
C500        C504   1.486       .  S
C501        C502   1.401       .  A
C501       Br513   1.920       .  S
C502        H505   1.084       .  S
C504        C506   1.403       .  A
C504        C510   1.408   1_565  A
C506        C507   1.402       .  A
C506        H511   1.084       .  S
C507        C508   1.417       .  A
C507       Br515   1.921       .  S
C508        C509   1.408   1_565  A
C509        C510   1.401       .  A
C509        H512   1.081       .  S
C510       Br516   1.920       .  S
C517        C518   1.418       .  A
C517        C522   1.406   1_565  A
C518        C519   1.399       .  A
C518       Br534   1.922       .  S
C519        C520   1.399       .  A
C519        H523   1.084       .  S
C520        C521   1.406   1_565  A
C520        C524   1.478       .  S
C521        C522   1.399       .  A
C521       Br533   1.919       .  S
C522        H525   1.083       .  S
C524        C526   1.402       .  A
C524        C530   1.409   1_565  A
C526        C527   1.400       .  A
C526        H531   1.083       .  S
C527        C528   1.412       .  A
C527       Br535   1.920       .  S
C528        C529   1.403   1_565  A
C529        C530   1.398       .  A
C529        H532   1.083       .  S
C530       Br536   1.919       .  S
C537        C538   1.411       .  A
C537        C542   1.404   1_565  A
C538        C539   1.399       .  A
C538       Br554   1.920       .  S
C539        C540   1.403       .  A
C539        H543   1.083       .  S
C540        C541   1.409   1_565  A
C540        C544   1.481       .  S
C541        C542   1.398       .  A
C541       Br553   1.920       .  S
C542        H545   1.083       .  S
C544        C546   1.402   1_565  A
C544        C550   1.407       .  A
C546        C547   1.398       .  A
C546        H551   1.084       .  S
C547        C548   1.414   1_545  A
C547       Br555   1.920       .  S
C548        C549   1.408       .  A
C549        C550   1.400       .  A
C549        H552   1.082       .  S
C550       Br556   1.920       .  S
C557        C558   1.408   1_655  A
C557        C562   1.403       .  A
C558        C559   1.399       .  A
C558       Br574   1.918       .  S
C559        C560   1.403   1_455  A
C559        H563   1.083       .  S
C560        C561   1.409       .  A
C560        C564   1.480       .  S
C561        C562   1.400       .  A
C561       Br573   1.918       .  S
C562        H565   1.083       .  S
C564        C566   1.402       .  A
C564        C570   1.408   1_655  A
C566        C567   1.399       .  A
C566        H571   1.084       .  S
C567        C568   1.411       .  A
C567       Br575   1.920       .  S
C568        C569   1.403   1_655  A
C569        C570   1.401       .  A
C569        H572   1.084       .  S
C570       Br576   1.919       .  S
C577        C578   1.410   1_655  A
C577        C582   1.404       .  A
C578        C579   1.400       .  A
C578       Br594   1.918       .  S
C579        C580   1.402   1_455  A
C579        H583   1.083       .  S
C580        C581   1.409       .  A
C580        C584   1.480       .  S
C581        C582   1.401       .  A
C581       Br593   1.919       .  S
C582        H585   1.083       .  S
C584        C586   1.402   1_655  A
C584        C590   1.407       .  A
C586        C587   1.401       .  A
C586        H591   1.083       .  S
C587        C588   1.413   1_455  A
C587       Br595   1.921       .  S
C588        C589   1.404       .  A
C589        C590   1.399       .  A
C589        H592   1.083       .  S
C590       Br596   1.918       .  S
C597        C598   1.414       .  A
C597        C602   1.406       .  A
C598        C599   1.405       .  A
C598       Br614   1.916       .  S
C599        C600   1.405       .  A
C599        H603   1.083       .  S
C600        C601   1.409       .  A
C600        C604   1.491       .  S
C601        C602   1.399       .  A
C601       Br613   1.919       .  S
C602        H605   1.083       .  S
C604        C606   1.405       .  A
C604        C610   1.411       .  A
C606        C607   1.401       .  A
C606        H611   1.084       .  S
C607        C608   1.411       .  A
C607       Br615   1.920       .  S
C608        C609   1.407       .  A
C609        C610   1.404       .  A
C609        H612   1.083       .  S
C610       Br616   1.918       .  S
C617        C618   1.409       .  A
C617        C622   1.402       .  A
C618        C619   1.400       .  A
C618       Br634   1.919       .  S
C619        C620   1.402       .  A
C619        H623   1.083       .  S
C620        C621   1.408       .  A
C620        C624   1.479       .  S
C621        C622   1.400       .  A
C621       Br633   1.917       .  S
C622        H625   1.080       .  S
C624        C626   1.403       .  A
C624        C630   1.406       .  A
C626        C627   1.401       .  A
C626        H631   1.083       .  S
C627        C628   1.409       .  A
C627       Br635   1.920       .  S
C628        C629   1.406       .  A
C629        C630   1.400       .  A
C629        H632   1.083       .  S
C630       Br636   1.918       .  S
C637        C638   1.408       .  A
C637        C642   1.402       .  A
C638        C639   1.400       .  A
C638       Br654   1.918       .  S
C639        C640   1.402       .  A
C639        H643   1.083       .  S
C640        C641   1.408       .  A
C640        C644   1.476       .  S
C641        C642   1.399       .  A
C641       Br653   1.918       .  S
C642        H645   1.084       .  S
C644        C646   1.403       .  A
C644        C650   1.406       .  A
C646        C647   1.401       .  A
C646        H651   1.083       .  S
C647        C648   1.408       .  A
C647       Br655   1.917       .  S
C648        C649   1.403       .  A
C649        C650   1.398       .  A
C649        H652   1.084       .  S
C650       Br656   1.918       .  S
C657        C658   1.409       .  A
C657        C662   1.404       .  A
C658        C659   1.402       .  A
C658       Br674   1.917       .  S
C659        C660   1.405       .  A
C659        H663   1.083       .  S
C660        C661   1.410       .  A
C660        C664   1.485       .  S
C661        C662   1.401       .  A
C661       Br673   1.919       .  S
C662        H665   1.083       .  S
C664        C666   1.405       .  A
C664        C670   1.409       .  A
C666        C667   1.401       .  A
C666        H671   1.083       .  S
C667        C668   1.408       .  A
C667       Br675   1.919       .  S
C668        C669   1.403       .  A
C669        C670   1.400       .  A
C669        H672   1.084       .  S
C670       Br676   1.919       .  S
C677        C678   1.416       .  A
C677        C682   1.409       .  A
C678        C679   1.400       .  A
C678       Br694   1.918       .  S
C679        C680   1.400       .  A
C679        H683   1.084       .  S
C680        C681   1.406       .  A
C680        C684   1.482       .  S
C681        C682   1.402       .  A
C681       Br693   1.917       .  S
C682        H685   1.084       .  S
C684        C686   1.398       .  A
C684        C690   1.401       .  A
C686        C687   1.407       .  A
C686        H691   1.084       .  S
C687        C688   1.432       .  A
C687       Br695   1.926       .  S
C688        C689   1.414       .  A
C689        C690   1.399       .  A
C689        H692   1.076       .  S
C690       Br696   1.919       .  S
C697        C698   1.412       .  A
C697        C702   1.404       .  A
C698        C699   1.402       .  A
C698       Br714   1.920       .  S
C699        C700   1.403       .  A
C699        H703   1.083       .  S
C700        C701   1.410       .  A
C700        C704   1.483       .  S
C701        C702   1.400       .  A
C701       Br713   1.920       .  S
C702        H705   1.083       .  S
C704        C706   1.404       .  A
C704        C710   1.408       .  A
C706        C707   1.402       .  A
C706        H711   1.083       .  S
C707        C708   1.411       .  A
C707       Br715   1.919       .  S
C708        C709   1.405       .  A
C709        C710   1.398       .  A
C709        H712   1.084       .  S
C710       Br716   1.919       .  S
C717        C718   1.414       .  A
C717        C722   1.404       .  A
C718        C719   1.404       .  A
C718       Br734   1.919       .  S
C719        C720   1.402       .  A
C719        H723   1.083       .  S
C720        C721   1.409   1_655  A
C720        C724   1.486       .  S
C721        C722   1.401   1_455  A
C721       Br733   1.920       .  S
C722        H725   1.084   1_655  S
C724        C726   1.403       .  A
C724        C730   1.408   1_655  A
C726        C727   1.405       .  A
C726        H731   1.083       .  S
C727        C728   1.413       .  A
C727       Br735   1.914       .  S
C728        C729   1.404   1_655  A
C729        C730   1.399       .  A
C729        H732   1.084       .  S
C730       Br736   1.918       .  S
C737        C738   1.418       .  A
C737        C742   1.407   1_655  A
C738        C739   1.404       .  A
C738       Br754   1.922       .  S
C739        C740   1.402       .  A
C739        H743   1.083       .  S
C740        C741   1.405   1_655  A
C740        C744   1.480       .  S
C741        C742   1.396       .  A
C741       Br753   1.919       .  S
C742        H745   1.081       .  S
C744        C746   1.404       .  A
C744        C750   1.406       .  A
C746        C747   1.403       .  A
C746        H751   1.084       .  S
C747        C748   1.410   1_655  A
C747       Br755   1.915   1_655  S
C748        C749   1.404   1_455  A
C749        C750   1.399       .  A
C749        H752   1.084       .  S
C750       Br756   1.918       .  S
C757        C758   1.419       .  A
C757        C762   1.406       .  A
C758        C759   1.404       .  A
C758       Br774   1.920       .  S
C759        C760   1.403       .  A
C759        H763   1.084       .  S
C760        C761   1.412       .  A
C760        C764   1.496       .  S
C761        C762   1.406       .  A
C761       Br773   1.919       .  S
C762        H765   1.083       .  S
C764        C766   1.401       .  A
C764        C770   1.408       .  A
C766        C767   1.404       .  A
C766        H771   1.083       .  S
C767        C768   1.424       .  A
C767       Br775   1.923       .  S
C768        C769   1.416       .  A
C769        C770   1.404       .  A
C769        H772   1.075       .  S
C770       Br776   1.921       .  S
C777        C778   1.408       .  A
C777        C782   1.399       .  A
C778        C779   1.403       .  A
C778       Br794   1.918       .  S
C779        C780   1.405       .  A
C779        H783   1.083       .  S
C780        C781   1.411       .  A
C780        C784   1.482       .  S
C781        C782   1.397       .  A
C781       Br793   1.920       .  S
C782        H785   1.084       .  S
C784        C786   1.403       .  A
C784        C790   1.407       .  A
C786        C787   1.404       .  A
C786        H791   1.084       .  S
C787        C788   1.416       .  A
C787       Br795   1.915       .  S
C788        C789   1.406       .  A
C789        C790   1.395       .  A
C789        H792   1.083       .  S
C790       Br796   1.919       .  S
C797        C798   1.415       .  A
C797        C802   1.402   1_565  A
C798        C799   1.399       .  A
C798       Br814   1.922       .  S
C799        C800   1.401       .  A
C799        H803   1.084       .  S
C800        C801   1.409   1_565  A
C800        C804   1.480       .  S
C801        C802   1.399       .  A
C801       Br813   1.919       .  S
C802        H805   1.083       .  S
C804        C806   1.400   1_565  A
C804        C810   1.408       .  A
C806        C807   1.397       .  A
C806        H811   1.084       .  S
C807        C808   1.415   1_545  A
C807       Br815   1.921       .  S
C808        C809   1.408       .  A
C809        C810   1.401       .  A
C809        H812   1.083       .  S
C810       Br816   1.919       .  S
C817        C818   1.419   1_545  A
C817        C822   1.408       .  A
C818        C819   1.398       .  A
C818       Br834   1.922       .  S
C819        C820   1.400   1_565  A
C819        H823   1.084       .  S
C820        C821   1.407       .  A
C820        C824   1.483       .  S
C821        C822   1.401       .  A
C821       Br833   1.919       .  S
C822        H825   1.082       .  S
C824        C826   1.400       .  A
C824        C830   1.405   1_545  A
C826        C827   1.401       .  A
C826        H831   1.084       .  S
C827        C828   1.424       .  A
C827       Br835   1.925       .  S
C828        C829   1.413   1_545  A
C829        C830   1.398       .  A
C829        H832   1.075       .  S
C830       Br836   1.920       .  S
C837        C838   1.415       .  A
C837        C842   1.410       .  A
C838        C839   1.404       .  A
C838       Br854   1.916       .  S
C839        C840   1.402       .  A
C839        H843   1.084       .  S
C840        C841   1.406       .  A
C840        C844   1.484       .  S
C841        C842   1.401       .  A
C841       Br853   1.919       .  S
C842        H845   1.083       .  S
C844        C846   1.402       .  A
C844        C850   1.407       .  A
C846        C847   1.405       .  A
C846        H851   1.083       .  S
C847        C848   1.417       .  A
C847       Br855   1.919       .  S
C848        C849   1.406       .  A
C849        C850   1.399       .  A
C849        H852   1.083       .  S
C850       Br856   1.918       .  S
C857        C858   1.413       .  A
C857        C862   1.406       .  A
C858        C859   1.403       .  A
C858       Br874   1.913       .  S
C859        C860   1.403       .  A
C859        H863   1.084       .  S
C860        C861   1.408       .  A
C860        C864   1.487       .  S
C861        C862   1.400       .  A
C861       Br873   1.918       .  S
C862        H865   1.084       .  S
C864        C866   1.403       .  A
C864        C870   1.409       .  A
C866        C867   1.404       .  A
C866        H871   1.084       .  S
C867        C868   1.417       .  A
C867       Br875   1.920       .  S
C868        C869   1.405       .  A
C869        C870   1.401       .  A
C869        H872   1.083       .  S
C870       Br876   1.919       .  S
C877        C878   1.407       .  A
C877        C882   1.402       .  A
C878        C879   1.398       .  A
C878       Br894   1.918       .  S
C879        C880   1.403       .  A
C879        H883   1.083       .  S
C880        C881   1.407       .  A
C880        C884   1.474       .  S
C881        C882   1.396       .  A
C881       Br893   1.919       .  S
C882        H885   1.084       .  S
C884        C886   1.401       .  A
C884        C890   1.408       .  A
C886        C887   1.398       .  A
C886        H891   1.084       .  S
C887        C888   1.411       .  A
C887       Br895   1.921       .  S
C888        C889   1.403       .  A
C889        C890   1.397       .  A
C889        H892   1.083       .  S
C890       Br896   1.920       .  S
C897        C898   1.406       .  A
C897        C902   1.402       .  A
C898        C899   1.397       .  A
C898       Br914   1.917       .  S
C899        C900   1.403       .  A
C899        H903   1.083       .  S
C900        C901   1.409       .  A
C900        C904   1.477       .  S
C901        C902   1.399       .  A
C901       Br913   1.919       .  S
C902        H905   1.083       .  S
C904        C906   1.402       .  A
C904        C910   1.408       .  A
C906        C907   1.399       .  A
C906        H911   1.084       .  S
C907        C908   1.409       .  A
C907       Br915   1.919       .  S
C908        C909   1.401       .  A
C909        C910   1.399       .  A
C909        H912   1.082       .  S
C910       Br916   1.919       .  S
C917        C918   1.408       .  A
C917        C922   1.403       .  A
C918        C919   1.397       .  A
C918       Br934   1.919       .  S
C919        C920   1.403       .  A
C919        H923   1.083       .  S
C920        C921   1.409       .  A
C920        C924   1.477       .  S
C921        C922   1.397       .  A
C921       Br933   1.920       .  S
C922        H925   1.084       .  S
C924        C926   1.399       .  A
C924        C930   1.407       .  A
C926        C927   1.397       .  A
C926        H931   1.084       .  S
C927        C928   1.418       .  A
C927       Br935   1.922       .  S
C928        C929   1.406       .  A
C929        C930   1.399       .  A
C929        H932   1.083       .  S
C930       Br936   1.920       .  S
C937        C938   1.414       .  A
C937        C942   1.405       .  A
C938        C939   1.402       .  A
C938       Br954   1.918       .  S
C939        C940   1.402       .  A
C939        H943   1.084       .  S
C940        C941   1.409       .  A
C940        C944   1.483       .  S
C941        C942   1.401       .  A
C941       Br953   1.920       .  S
C942        H945   1.083       .  S
C944        C946   1.404       .  A
C944        C950   1.410       .  A
C946        C947   1.400       .  A
C946        H951   1.083       .  S
C947        C948   1.410       .  A
C947       Br955   1.920       .  S
C948        C949   1.404       .  A
C949        C950   1.400       .  A
C949        H952   1.083       .  S
C950       Br956   1.918       .  S
C957        C958   1.406   1_565  A
C957        C962   1.407       .  A
C958        C959   1.397   1_545  A
C958       Br974   1.913       .  S
C959        C960   1.402       .  A
C959        H963   1.084   1_565  S
C960        C961   1.409       .  A
C960        C964   1.482       .  S
C961        C962   1.404       .  A
C961       Br973   1.918       .  S
C962        H965   1.083       .  S
C964        C966   1.401       .  A
C964        C970   1.406   1_565  A
C966        C967   1.404       .  A
C966        H971   1.084       .  S
C967        C968   1.419       .  A
C967       Br975   1.916       .  S
C968        C969   1.407   1_565  A
C969        C970   1.396       .  A
C969        H972   1.083       .  S
C970       Br976   1.919       .  S
C977        C978   1.412       .  A
C977        C982   1.403   1_565  A
C978        C979   1.404       .  A
C978       Br994   1.919       .  S
C979        C980   1.404       .  A
C979        H983   1.083       .  S
C980        C981   1.411   1_565  A
C980        C984   1.486       .  S
C981        C982   1.401       .  A
C981       Br993   1.920       .  S
C982        H985   1.084       .  S
C984        C986   1.402       .  A
C984        C990   1.406   1_565  A
C986        C987   1.404       .  A
C986        H991   1.084       .  S
C987        C988   1.415       .  A
C987       Br995   1.908       .  S
C988        C989   1.412   1_565  A
C989        C990   1.400       .  A
C989        H992   1.083       .  S
C990       Br996   1.919       .  S
C997        C998   1.424       .  A
C997       C1002   1.417       .  A
C998        C999   1.398       .  A
C998      Br1014   1.918       .  S
C999       C1000   1.397       .  A
C999       H1003   1.084       .  S
C1000      C1001   1.402       .  A
C1000      C1004   1.478       .  S
C1001      C1002   1.398       .  A
C1001     Br1013   1.921       .  S
C1002      H1005   1.073       .  S
C1004      C1006   1.400       .  A
C1004      C1010   1.408       .  A
C1006      C1007   1.396       .  A
C1006      H1011   1.084       .  S
C1007      C1008   1.415       .  A
C1007     Br1015   1.921       .  S
C1008      C1009   1.404       .  A
C1009      C1010   1.400       .  A
C1009      H1012   1.083       .  S
C1010     Br1016   1.918       .  S
C1017      C1018   1.412       .  A
C1017      C1022   1.399       .  A
C1018      C1019   1.399       .  A
C1018     Br1034   1.916       .  S
C1019      C1020   1.402       .  A
C1019      H1023   1.084       .  S
C1020      C1021   1.410       .  A
C1020      C1024   1.481       .  S
C1021      C1022   1.398       .  A
C1021     Br1033   1.920       .  S
C1022      H1025   1.078       .  S
C1024      C1026   1.405       .  A
C1024      C1030   1.409       .  A
C1026      C1027   1.401       .  A
C1026      H1031   1.083       .  S
C1027      C1028   1.409       .  A
C1027     Br1035   1.920       .  S
C1028      C1029   1.402       .  A
C1029      C1030   1.397       .  A
C1029      H1032   1.083       .  S
C1030     Br1036   1.920       .  S
