geometry optimzed in LAMMPS
_audit_creation_date              2020-12-01 
_audit_creation_method            'lammps2cif' 
_symmetry_space_group_name_H-M    'P1' 
_symmetry_Int_Tables_number       1 
_symmetry_cell_setting            triclinic 
loop_ 
_symmetry_equiv_pos_as_xyz 
  x,y,z 
_cell_length_a                    29.96207357 
_cell_length_b                    35.47842943309486 
_cell_length_c                    26.916320230492666 
_cell_angle_alpha                 89.54431059071644 
_cell_angle_beta                  90.38062126980584 
_cell_angle_gamma                 91.24285628893048 
loop_ 
_atom_site_label 
_atom_site_type_symbol 
_atom_site_fract_x 
_atom_site_fract_y 
_atom_site_fract_z 
_atom_site_charge 
O1          O  0.15655014  0.00061275  0.42595764    -0.71600
O2          O  0.16026937  0.99214065  0.07540961    -0.72600
O3          O  0.15387384  0.94056838  0.99414851    -0.61200
O4          O  0.16835015  0.05392764  0.00832945    -0.69600
O5          O  0.08800637  0.05801602  0.50467868    -0.69200
O6          O  0.07624811  0.94502138  0.49495367    -0.60400
O7          O  0.08659292  0.99775869  0.07407438    -0.73000
O8          O  0.08268319  0.00487312  0.42528138    -0.71700
Cu9        Cu  0.16415226  0.99702206  0.00128093     1.04600
Cu10       Cu  0.08024541  0.00158760  0.50003644     1.04300
C11         C  0.11978092  0.00303781  0.40223914     0.94600
C12         C  0.12318293  0.99406286  0.09819086     0.93700
C13         C  0.11049721  0.92442025  0.49163475     0.85900
C14         C  0.13373535  0.07438778  0.01060648     0.92100
O15         O  0.17028943  0.04921193  0.24760945    -0.71600
O16         O  0.14886248  0.93753006  0.25665847    -0.72600
O17         O  0.15945062  0.99038080  0.17695563    -0.61200
O18         O  0.15753076  0.99688423  0.32585513    -0.69600
O19         O  0.08431232  0.00546634  0.32341464    -0.69200
O20         O  0.08615920  0.99845874  0.17529649    -0.60400
O21         O  0.07560838  0.94533331  0.25494705    -0.73000
O22         O  0.09727363  0.05832236  0.24469159    -0.71700
Cu23       Cu  0.16153868  0.99316278  0.25168173     1.04600
Cu24       Cu  0.08324031  0.00217704  0.24931456     1.04300
C25         C  0.13747545  0.07146445  0.24563306     0.94600
C26         C  0.10918769  0.92372081  0.25842847     0.93700
C27         C  0.12288716  0.99379648  0.15268331     0.85900
C28         C  0.12056072  0.00214331  0.34797100     0.92100
C29         C  0.10771041  0.18031534  0.03384858     0.04400
C30         C  0.06805201  0.20072424  0.03783694    -0.11700
C31         C  0.06857987  0.23931240  0.05089093     0.01900
C32         C  0.11020643  0.25668727  0.06147680    -0.10200
C33         C  0.15065844  0.23815458  0.05307095     0.04400
C34         C  0.14881718  0.19983264  0.03964248    -0.09700
H35         H  0.03675773  0.18633277  0.02920987     0.10000
H36         H  0.11115800  0.28516562  0.07530201     0.07600
H37         H  0.17943618  0.18578616  0.03194012     0.07400
C38         C  0.12062502  0.17916406  0.25010951     0.04400
C39         C  0.08189328  0.19992811  0.25534764    -0.11700
C40         C  0.08375555  0.23821688  0.26803689     0.01900
C41         C  0.12597497  0.25530799  0.27706952    -0.10200
C42         C  0.16571310  0.23661488  0.26639628     0.04400
C43         C  0.16244216  0.19805011  0.25315421    -0.09700
H44         H  0.05023683  0.18593207  0.24798088     0.10000
H45         H  0.12796786  0.28368827  0.29123477     0.07600
H46         H  0.19203804  0.18306204  0.24344085     0.07400
C47         C  0.13182539  0.81737601  0.46890970     0.04400
C48         C  0.09047989  0.79810857  0.46200548    -0.11700
C49         C  0.08842260  0.75925571  0.44965289     0.01900
C50         C  0.12907772  0.74054049  0.44269954    -0.10200
C51         C  0.17066641  0.75854297  0.45214044     0.04400
C52         C  0.17106437  0.79680637  0.46577603    -0.09700
H53         H  0.06002605  0.81289002  0.46798011     0.10000
H54         H  0.13081220  0.71483915  0.92442531     0.07600
H55         H  0.20223693  0.81103934  0.47510100     0.07400
C56         C  0.13165031  0.81799115  0.28664412     0.04400
C57         C  0.17081416  0.79752610  0.29416293    -0.11700
C58         C  0.16926302  0.75915026  0.30828494     0.01900
C59         C  0.12726146  0.74201466  0.31723541    -0.10200
C60         C  0.08738965  0.76085883  0.30625784     0.04400
C61         C  0.09017884  0.79894185  0.29105452    -0.09700
H62         H  0.20257094  0.81147559  0.28676430     0.10000
H63         H  0.12566734  0.71343908  0.33130832     0.07600
H64         H  0.06005336  0.81312804  0.28080392     0.07400
C65         C  0.00285902  0.68297873  0.96048238     0.04400
C66         C  0.21497904  0.70058155  0.95957497    -0.11700
C67         C  0.21622245  0.73911354  0.94679366     0.01900
C68         C  0.00747665  0.76026683  0.93583022    -0.10200
C69         C  0.04751808  0.74109129  0.94477646     0.04400
C70         C  0.04459869  0.70204176  0.95619814    -0.09700
H71         H  0.18335761  0.68639325  0.96697053     0.10000
H72         H  0.00899571  0.78931195  0.92348946     0.07600
H73         H  0.07474909  0.68681648  0.96282728     0.07400
C74         C  0.00054065  0.68199279  0.28614627     0.04400
C75         C  0.20864093  0.69805256  0.29251243    -0.11700
C76         C  0.21074575  0.73610582  0.30729682     0.01900
C77         C  0.00294984  0.75869477  0.31196576    -0.10200
C78         C  0.04339498  0.73982425  0.30518705     0.04400
C79         C  0.04153148  0.70136125  0.29256237    -0.09700
H80         H  0.17661505  0.68423866  0.28602737     0.10000
H81         H  0.00394827  0.78764030  0.32430096     0.07600
H82         H  0.07221349  0.68697199  0.28586277     0.07400
C83         C  0.23556473  0.31871669  0.03549047     0.04400
C84         C  0.19536417  0.29830542  0.04025643    -0.11700
C85         C  0.19435047  0.25979779  0.05317069     0.01900
C86         C  0.23529231  0.24176286  0.06176774    -0.10200
C87         C  0.02640109  0.26202380  0.04975615     0.04400
C88         C  0.02748446  0.30117148  0.03848744    -0.09700
H89         H  0.16470036  0.31270783  0.03215591     0.10000
H90         H  0.23477162  0.21294192  0.07478716     0.07600
H91         H  0.05921181  0.31528730  0.03289287     0.07400
C92         C  0.25426677  0.31623319  0.25144463     0.04400
C93         C  0.04554527  0.29952928  0.25342555    -0.11700
C94         C  0.04230219  0.26106793  0.26548557     0.01900
C95         C  0.25002029  0.23837508  0.27170267    -0.10200
C96         C  0.20987988  0.25788764  0.26569541     0.04400
C97         C  0.21254588  0.29727874  0.25603922    -0.09700
H98         H  0.07779966  0.31332302  0.24930814     0.10000
H99         H  0.24877462  0.20916814  0.28313893     0.07600
H100        H  0.18241118  0.31292940  0.25105019     0.07400
O101        O  0.20713868  0.49226763  0.42270865    -0.71600
O102        O  0.22996885  0.50432985  0.06997210    -0.72600
O103        O  0.23684145  0.55692034  0.98902052    -0.61200
O104        O  0.22930372  0.44175982  0.00484152    -0.69600
O105        O  0.05657640  0.44634117  0.00883813    -0.69200
O106        O  0.06053474  0.55838149  0.99678182    -0.60400
O107        O  0.05569927  0.50612737  0.07780347    -0.73000
O108        O  0.04940542  0.49555838  0.42736507    -0.71700
Cu109      Cu  0.22932708  0.49942154  0.99672643     1.04600
Cu110      Cu  0.05997848  0.50230167  0.00281510     1.04300
C111        C  0.24417748  0.49480891  0.39931793     0.94600
C112        C  0.26594381  0.50308340  0.09524477     0.93700
C113        C  0.27571304  0.57296619  0.98818298     0.85900
C114        C  0.26616694  0.42395319  0.00695382     0.92100
O115        O  0.03572714  0.44160959  0.24705506    -0.71600
O116        O  0.05877090  0.55469209  0.25987111    -0.72600
O117        O  0.04713530  0.49328796  0.32683671    -0.61200
O118        O  0.05162102  0.50267809  0.17937217    -0.69600
O119        O  0.22419805  0.50611255  0.16967293    -0.69200
O120        O  0.21060344  0.50011516  0.31865634    -0.60400
O121        O  0.22839680  0.55913778  0.24896659    -0.73000
O122        O  0.20478122  0.44727670  0.23970673    -0.71700
Cu123      Cu  0.05088441  0.49774167  0.25324196     1.04600
Cu124      Cu  0.21447141  0.50352246  0.24373293     1.04300
C125        C  0.23727380  0.42461759  0.24179006     0.94600
C126        C  0.26812634  0.57213675  0.25538047     0.93700
C127        C  0.24569995  0.49461456  0.34476974     0.85900
C128        C  0.26253173  0.50261949  0.14964307     0.92100
C129        C  0.26030446  0.35806772  0.24554095    -0.15100
C130        C  0.22750426  0.38334073  0.24195514    -0.30300
H131        H  0.04941180  0.37217924  0.23104600     0.13900
H132        H  0.19279614  0.37419892  0.24109265     0.14500
C133        C  0.23284788  0.36018459  0.02470829    -0.15100
C134        C  0.26817447  0.38259486  0.01372495    -0.30300
H135        H  0.19153650  0.37152143  0.51589852     0.13900
H136        H  0.05536514  0.37505494  0.02003165     0.14500
C137        C  0.24238290  0.63730371  0.26843685    -0.15100
C138        C  0.27621248  0.61296998  0.26408325    -0.30300
H139        H  0.20850862  0.62644813  0.26329078     0.13900
H140        H  0.06614581  0.62776935  0.27210855     0.14500
C141        C  0.03063603  0.61879275  0.98538735    -0.15500
C142        C  0.99745843  0.64144422  0.97085990    -0.30300
H143        H  0.06402327  0.63027328  0.99103444     0.13900
H144        H  0.29382682  0.62681799  0.46717413     0.14500
C145        C  0.14699227  0.11257317  0.24668198    -0.15100
C146        C  0.11474526  0.13795308  0.24069092    -0.30300
H147        H  0.18084840  0.12162257  0.25568351     0.13900
H148        H  0.08115754  0.12754155  0.23242456     0.14500
C149        C  0.10181574  0.88263715  0.26625472    -0.15100
C150        C  0.13611381  0.85890545  0.27301476    -0.30300
H151        H  0.06752313  0.87274486  0.26885646     0.13900
H152        H  0.16987998  0.87050050  0.27036504     0.14500
C153        C  0.10439024  0.13895211  0.02238806    -0.15100
C154        C  0.13936220  0.11561602  0.01856432    -0.30300
H155        H  0.06270968  0.12575301  0.51333691     0.13900
H156        H  0.17338525  0.12614939  0.02273476     0.14500
C157        C  0.10319618  0.88316821  0.48396418    -0.15100
C158        C  0.13685392  0.85877856  0.48005786    -0.30300
H159        H  0.06890256  0.87335605  0.48011396     0.13900
H160        H  0.17490561  0.87293575  0.97711151     0.14500
O161        O  0.16379118  0.00217537  0.92691511    -0.71600
O162        O  0.15802683  0.99262204  0.57354204    -0.72600
O163        O  0.14980180  0.93945694  0.49378383    -0.61200
O164        O  0.16174765  0.05381753  0.50518631    -0.69600
O165        O  0.09473926  0.05931448  0.00694419    -0.69200
O166        O  0.08038576  0.94692902  0.99244389    -0.60400
O167        O  0.08433378  0.99792708  0.57492580    -0.73000
O168        O  0.09020444  0.00827466  0.92510175    -0.71700
Cu169      Cu  0.15909562  0.99651292  0.49960959     1.04600
Cu170      Cu  0.08544380  0.00324610  0.99955905     1.04300
C171        C  0.12750169  0.00610207  0.90251104     0.94600
C172        C  0.12176856  0.99483611  0.59770019     0.93700
C173        C  0.11447230  0.92604350  0.99035860     0.85900
C174        C  0.12666621  0.07380149  0.50723122     0.92100
O175        O  0.17334763  0.05328465  0.74293349    -0.71600
O176        O  0.15539923  0.94119059  0.75643974    -0.72600
O177        O  0.16109207  0.99311561  0.67492253    -0.61200
O178        O  0.16480079  0.00156239  0.82466856    -0.69600
O179        O  0.09150149  0.00947696  0.82410018    -0.69200
O180        O  0.08758649  0.99973636  0.67631202    -0.60400
O181        O  0.08199565  0.94784977  0.75796413    -0.73000
O182        O  0.10013859  0.06131406  0.74196175    -0.71700
Cu183      Cu  0.16620552  0.99706908  0.74971033     1.04600
Cu184      Cu  0.08775001  0.00487075  0.75014667     1.04300
C185        C  0.14006643  0.07497145  0.73928028     0.94600
C186        C  0.11615009  0.92673670  0.76005517     0.93700
C187        C  0.12354703  0.99545850  0.65218504     0.85900
C188        C  0.12819128  0.00625337  0.84788888     0.92100
C189        C  0.09878084  0.17967056  0.52897863     0.04400
C190        C  0.05893610  0.19956647  0.53456453    -0.11700
C191        C  0.05935574  0.23803605  0.54813945     0.01900
C192        C  0.10097272  0.25582070  0.55769248    -0.10200
C193        C  0.14141129  0.23780661  0.54794863     0.04400
C194        C  0.13966729  0.19965714  0.53363674    -0.09700
H195        H  0.02766330  0.18493945  0.52686683     0.10000
H196        H  0.10191616  0.28415693  0.57208835     0.07600
H197        H  0.17019729  0.18606455  0.52430663     0.07400
C198        C  0.12319163  0.18085606  0.70572199     0.04400
C199        C  0.08464597  0.20190991  0.69900440    -0.11700
C200        C  0.08683372  0.24047349  0.68693624     0.01900
C201        C  0.12909449  0.25778802  0.67971428    -0.10200
C202        C  0.16867478  0.23840191  0.68937048     0.04400
C203        C  0.16524311  0.19952591  0.70202998    -0.09700
H204        H  0.05260012  0.18809055  0.70561868     0.10000
H205        H  0.13121108  0.28673948  0.66705978     0.07600
H206        H  0.19513408  0.18416700  0.70994813     0.07400
C207        C  0.13596985  0.82012450  0.96376934     0.04400
C208        C  0.09441402  0.80094673  0.95859646    -0.11700
C209        C  0.09181633  0.76231710  0.94575479     0.01900
C210        C  0.13207334  0.74353806  0.93746098    -0.10200
C211        C  0.17400063  0.76123584  0.94621862     0.04400
C212        C  0.17511526  0.79963613  0.95879514    -0.09700
H213        H  0.06415968  0.81562337  0.96612696     0.10000
H214        H  0.12839409  0.71181256  0.42974219     0.07600
H215        H  0.20669888  0.81383415  0.96662669     0.07400
C216        C  0.14101953  0.82041937  0.78310916     0.04400
C217        C  0.18044845  0.80007242  0.79038901    -0.11700
C218        C  0.17907513  0.76153965  0.80422813     0.01900
C219        C  0.13716109  0.74430440  0.81324411    -0.10200
C220        C  0.09732481  0.76273623  0.80176843     0.04400
C221        C  0.09978885  0.80087952  0.78662819    -0.09700
H222        H  0.21214072  0.81424493  0.78339446     0.10000
H223        H  0.13551952  0.71590544  0.82780936     0.07600
H224        H  0.06965589  0.81480585  0.77557406     0.07400
C225        C  0.99973633  0.67953388  0.46267348     0.04400
C226        C  0.21518594  0.69835656  0.46044791    -0.11700
C227        C  0.21376201  0.73753386  0.45033738     0.01900
C228        C  0.00401948  0.75654360  0.43772512    -0.10200
C229        C  0.04421830  0.73775199  0.44759769     0.04400
C230        C  0.04141591  0.69880678  0.45935612    -0.09700
H231        H  0.18455135  0.68274879  0.46707800     0.10000
H232        H  0.00546239  0.78551479  0.42524493     0.07600
H233        H  0.07160569  0.68382983  0.46703109     0.07400
C234        C  0.01037630  0.68332082  0.78291696     0.04400
C235        C  0.21752012  0.69975198  0.79052554    -0.11700
C236        C  0.22037945  0.73814505  0.80358066     0.01900
C237        C  0.01349378  0.76042385  0.80766345    -0.10200
C238        C  0.05364522  0.74133329  0.80096471     0.04400
C239        C  0.05160814  0.70251689  0.78929040    -0.09700
H240        H  0.18527887  0.68640219  0.78371153     0.10000
H241        H  0.01453542  0.78936599  0.81987614     0.07600
H242        H  0.08212699  0.68768735  0.78338390     0.07400
C243        C  0.22681594  0.31843978  0.53021731     0.04400
C244        C  0.18631216  0.29839989  0.53649303    -0.11700
C245        C  0.18503525  0.25958190  0.54792746     0.01900
C246        C  0.22585026  0.24114779  0.55474356    -0.10200
C247        C  0.01701639  0.26033563  0.54865269     0.04400
C248        C  0.01779711  0.29944324  0.53791112    -0.09700
H249        H  0.15556545  0.31326342  0.53042942     0.10000
H250        H  0.22551209  0.21216603  0.56709849     0.07600
H251        H  0.04933149  0.31331419  0.53059193     0.07400
C252        C  0.25949852  0.31641410  0.70426603     0.04400
C253        C  0.04808670  0.30092528  0.70373977    -0.11700
C254        C  0.04548408  0.26334779  0.68801910     0.01900
C255        C  0.25222167  0.23968246  0.67789677    -0.10200
C256        C  0.21313456  0.25920419  0.68873699     0.04400
C257        C  0.21718956  0.29795571  0.70148487    -0.09700
H258        H  0.08024382  0.31384302  0.71201660     0.10000
H259        H  0.24957556  0.21096659  0.66517933     0.07600
H260        H  0.18771014  0.31331378  0.71020649     0.07400
O261        O  0.23172433  0.49421983  0.92348833    -0.71600
O262        O  0.21039761  0.49861207  0.57332196    -0.72600
O263        O  0.20017516  0.55101163  0.49326909    -0.61200
O264        O  0.21558892  0.43888282  0.50351794    -0.69600
O265        O  0.04960889  0.44332825  0.50820406    -0.69200
O266        O  0.05660591  0.55498822  0.49627473    -0.60400
O267        O  0.05338230  0.50325295  0.57634705    -0.73000
O268        O  0.05704437  0.49831932  0.92761590    -0.71700
Cu269      Cu  0.20570598  0.49485956  0.49822763     1.04600
Cu270      Cu  0.05471306  0.49915503  0.50192236     1.04300
C271        C  0.26820431  0.49266006  0.89966336     0.94600
C272        C  0.24809611  0.50354226  0.59530419     0.93700
C273        C  0.23430008  0.57291148  0.48921076     0.85900
C274        C  0.25457405  0.42499767  0.50632742     0.92100
O275        O  0.03891368  0.44076337  0.74476258    -0.71600
O276        O  0.06494888  0.55396936  0.75731236    -0.72600
O277        O  0.05423008  0.49287629  0.82544049    -0.61200
O278        O  0.05320792  0.50156794  0.67743456    -0.69600
O279        O  0.21607638  0.50573944  0.67608350    -0.69200
O280        O  0.22763117  0.49639704  0.82432084    -0.60400
O281        O  0.23236716  0.55766159  0.75645392    -0.73000
O282        O  0.21144792  0.44467146  0.74457528    -0.71700
Cu283      Cu  0.05539990  0.49690354  0.75124509     1.04600
Cu284      Cu  0.21937353  0.50136951  0.75064257     1.04300
C285        C  0.24427419  0.42283970  0.73797657     0.94600
C286        C  0.27235909  0.57119948  0.75685017     0.93700
C287        C  0.26563073  0.49182445  0.84513951     0.85900
C288        C  0.25118654  0.50316132  0.64980790     0.92100
C289        C  0.26664541  0.35759934  0.71593566    -0.15100
C290        C  0.23490806  0.38178838  0.72981464    -0.30300
H291        H  0.05251067  0.37177055  0.73020382     0.13900
H292        H  0.20061022  0.37198878  0.73387020     0.14500
C293        C  0.22466053  0.35984848  0.51905212    -0.15100
C294        C  0.26005684  0.38382304  0.51421012    -0.30300
H295        H  0.20030171  0.37298316  0.02679443     0.13900
H296        H  0.04658090  0.37263644  0.52143391     0.14500
C297        C  0.24885586  0.63712219  0.77196150    -0.15100
C298        C  0.28153318  0.61212581  0.76497319    -0.30300
H299        H  0.21453790  0.62659276  0.77018758     0.13900
H300        H  0.07461468  0.62737386  0.77013757     0.14500
C301        C  0.02751155  0.61567324  0.48742613    -0.15500
C302        C  0.99438735  0.63820589  0.47299424    -0.30300
H303        H  0.06100126  0.62696976  0.49323766     0.13900
H304        H  0.21472213  0.62679921  0.97729717     0.14500
C305        C  0.14895771  0.11590534  0.73100023    -0.15100
C306        C  0.11666324  0.13970921  0.71734366    -0.30300
H307        H  0.18324870  0.12587127  0.73463096     0.13900
H308        H  0.08285550  0.12817771  0.71395579     0.14500
C309        C  0.10993426  0.88547667  0.76812742    -0.15100
C310        C  0.14462735  0.86160910  0.77019092    -0.30300
H311        H  0.07610260  0.87540287  0.77462657     0.13900
H312        H  0.17803754  0.87323982  0.76422756     0.14500
C313        C  0.09599480  0.13827691  0.51737883    -0.15100
C314        C  0.13138148  0.11527182  0.51403031    -0.30300
H315        H  0.07092872  0.12678558  0.01829583     0.13900
H316        H  0.16520205  0.12624586  0.51832850     0.14500
C317        C  0.10722097  0.88501744  0.98243982    -0.15100
C318        C  0.14103547  0.86126683  0.97541761    -0.30300
H319        H  0.07284655  0.87496226  0.98078419     0.13900
H320        H  0.17066534  0.87008729  0.48407654     0.14500
O321        O  0.40701701  0.00005740  0.43099424    -0.71600
O322        O  0.41194234  0.98996919  0.08054290    -0.72600
O323        O  0.40564335  0.93795519  0.99941889    -0.61200
O324        O  0.41999760  0.05221243  0.01307963    -0.69600
O325        O  0.33960896  0.05767443  0.50979429    -0.69200
O326        O  0.32627988  0.94512527  0.50139240    -0.60400
O327        O  0.33829063  0.99573285  0.07880311    -0.73000
O328        O  0.33316497  0.00415285  0.43055986    -0.71700
Cu329      Cu  0.41585740  0.99480663  0.00637326     1.04600
Cu330      Cu  0.33100839  0.00141343  0.50563743     1.04300
C331        C  0.37014688  0.00211690  0.40728933     0.94600
C332        C  0.37467058  0.99152128  0.10306303     0.93700
C333        C  0.36046557  0.92453431  0.49793326     0.85900
C334        C  0.38542009  0.07283876  0.01507968     0.92100
O335        O  0.42035299  0.04575171  0.25034022    -0.71600
O336        O  0.39807440  0.93420215  0.26288153    -0.72600
O337        O  0.40999844  0.98626637  0.18206959    -0.61200
O338        O  0.40756786  0.99468000  0.33074235    -0.69600
O339        O  0.33444387  0.00353555  0.32808256    -0.69200
O340        O  0.33671337  0.99441324  0.17972245    -0.60400
O341        O  0.32491671  0.94245964  0.26067663    -0.73000
O342        O  0.34730481  0.05470364  0.24670432    -0.71700
Cu343      Cu  0.41149924  0.98981038  0.25658838     1.04600
Cu344      Cu  0.33325547  0.99901790  0.25366548     1.04300
C345        C  0.38746782  0.06780483  0.24615877     0.94600
C346        C  0.35822508  0.92063809  0.26442824     0.93700
C347        C  0.37372656  0.99013229  0.15746845     0.85900
C348        C  0.37070340  0.00045247  0.35281710     0.92100
C349        C  0.35933700  0.17989653  0.03515724     0.04400
C350        C  0.31961255  0.19976647  0.04159965    -0.11700
C351        C  0.31984428  0.23886313  0.05189401     0.01900
C352        C  0.36175463  0.25758382  0.05748655    -0.10200
C353        C  0.40215032  0.23922024  0.04823114     0.04400
C354        C  0.40016163  0.20034964  0.03654205    -0.09700
H355        H  0.28830361  0.18442244  0.03676698     0.10000
H356        H  0.36311736  0.28663221  0.06908283     0.07600
H357        H  0.43038232  0.18629307  0.02708853     0.07400
C358        C  0.36978731  0.17473251  0.23729696     0.04400
C359        C  0.33100877  0.19531898  0.24429447    -0.11700
C360        C  0.33327663  0.23333641  0.25840083     0.01900
C361        C  0.37570087  0.25029905  0.26503152    -0.10200
C362        C  0.41489767  0.23226720  0.25020522     0.04400
C363        C  0.41158518  0.19382006  0.23736080    -0.09700
H364        H  0.29909304  0.18118589  0.23892305     0.10000
H365        H  0.37814234  0.27820147  0.28069331     0.07600
H366        H  0.44099789  0.17904843  0.22619926     0.07400
C367        C  0.38216142  0.81922622  0.47058806     0.04400
C368        C  0.34070406  0.80008595  0.46449495    -0.11700
C369        C  0.33864699  0.76240294  0.44784234     0.01900
C370        C  0.37868254  0.74483779  0.43569442    -0.10200
C371        C  0.42024256  0.76187020  0.44642260     0.04400
C372        C  0.42137532  0.79922885  0.46353444    -0.09700
H373        H  0.31025282  0.81377432  0.47421753     0.10000
H374        H  0.38104524  0.71228435  0.92400219     0.07600
H375        H  0.45291654  0.81293889  0.47273408     0.07400
C376        C  0.37985958  0.81399359  0.28707690     0.04400
C377        C  0.41921714  0.79347728  0.29135185    -0.11700
C378        C  0.41850164  0.75449780  0.30205034     0.01900
C379        C  0.37681568  0.73615091  0.30862116    -0.10200
C380        C  0.33653157  0.75547663  0.30172358     0.04400
C381        C  0.33862692  0.79454400  0.29114692    -0.09700
H382        H  0.45058844  0.80819284  0.28474520     0.10000
H383        H  0.37571616  0.70675076  0.31923114     0.07600
H384        H  0.30814775  0.80941295  0.28463378     0.07400
C385        C  0.25402057  0.67984189  0.96482166     0.04400
C386        C  0.46842533  0.69835609  0.95497130    -0.11700
C387        C  0.46716447  0.73713640  0.94259282     0.01900
C388        C  0.25821553  0.75686761  0.93892218    -0.10200
C389        C  0.29833961  0.73793529  0.94811710     0.04400
C390        C  0.29570585  0.69906148  0.96044513    -0.09700
H391        H  0.43757495  0.68362977  0.96359356     0.10000
H392        H  0.25981712  0.78581906  0.92611262     0.07600
H393        H  0.32611282  0.68430388  0.96812515     0.07400
C394        C  0.24747724  0.67779816  0.28319555     0.04400
C395        C  0.46268725  0.69510152  0.28806530    -0.11700
C396        C  0.46127470  0.73308971  0.30325305     0.01900
C397        C  0.25305670  0.75309566  0.31504670    -0.10200
C398        C  0.29246535  0.73455283  0.30237135     0.04400
C399        C  0.28910889  0.69680388  0.28642333    -0.09700
H400        H  0.43207828  0.68055790  0.27784880     0.10000
H401        H  0.25520327  0.78131382  0.32971000     0.07600
H402        H  0.31879510  0.68285052  0.27461537     0.07400
C403        C  0.49215173  0.31815471  0.03378908     0.04400
C404        C  0.44992819  0.29951113  0.03664870    -0.11700
C405        C  0.44640633  0.26053154  0.04882337     0.01900
C406        C  0.48610444  0.24117120  0.05912599    -0.10200
C407        C  0.27668232  0.26041957  0.05280353     0.04400
C408        C  0.27607747  0.29928234  0.04053010    -0.09700
H409        H  0.42008041  0.31509165  0.02907375     0.10000
H410        H  0.48431325  0.21217341  0.07166961     0.07600
H411        H  0.30714220  0.31399484  0.03350925     0.07400
C412        C  0.49457297  0.31624051  0.23056273     0.04400
C413        C  0.29307488  0.29494074  0.25265811    -0.11700
C414        C  0.29171140  0.25593455  0.26232437     0.01900
C415        C  0.50000256  0.23815831  0.24798673    -0.10200
C416        C  0.45774739  0.25480187  0.24490344     0.04400
C417        C  0.45602747  0.29370754  0.23512666    -0.09700
H418        H  0.32453946  0.30918842  0.24468903     0.10000
H419        H  0.50155236  0.20883736  0.25847064     0.07600
H420        H  0.42412301  0.30717284  0.23082755     0.07400
O421        O  0.47570499  0.49470175  0.41652452    -0.71600
O422        O  0.44352752  0.50086664  0.06390944    -0.72600
O423        O  0.44475812  0.55372419  0.98253408    -0.61200
O424        O  0.43958934  0.44226357  0.99223759    -0.69600
O425        O  0.30334854  0.44175865  0.00378773    -0.69200
O426        O  0.31060838  0.55333604  0.99249953    -0.60400
O427        O  0.30382058  0.50085438  0.07362388    -0.73000
O428        O  0.28101904  0.49853715  0.42292624    -0.71700
Cu429      Cu  0.44099465  0.49791944  0.98761217     1.04600
Cu430      Cu  0.30842494  0.49734663  0.99825298     1.04300
C431        C  0.51150484  0.49407422  0.39138529     0.94600
C432        C  0.48110296  0.50250352  0.08716217     0.93700
C433        C  0.48140071  0.57240468  0.97984904     0.85900
C434        C  0.47470462  0.42317750  0.99750265     0.92100
O435        O  0.27749997  0.43745160  0.24516019    -0.71600
O436        O  0.30114641  0.54986405  0.25611633    -0.72600
O437        O  0.28343317  0.49034954  0.32399197    -0.61200
O438        O  0.29714744  0.49734408  0.17637594    -0.69600
O439        O  0.45006950  0.49596952  0.16877055    -0.69200
O440        O  0.46878524  0.48892149  0.31718481    -0.60400
O441        O  0.44794986  0.54797472  0.24998767    -0.73000
O442        O  0.47151088  0.43658564  0.23683333    -0.71700
Cu443      Cu  0.29231185  0.49336077  0.25053258     1.04600
Cu444      Cu  0.45701067  0.49188444  0.24344877     1.04300
C445        C  0.51152134  0.42531493  0.23132520     0.94600
C446        C  0.48101383  0.57138591  0.25007200     0.93700
C447        C  0.50743488  0.49405450  0.33687105     0.85900
C448        C  0.48426890  0.50276031  0.14183067     0.92100
C449        C  0.48833577  0.35797178  0.22750870    -0.15100
C450        C  0.52112607  0.38448999  0.22851781    -0.30300
H451        H  0.29449256  0.36893499  0.24593867     0.13900
H452        H  0.55589868  0.37658997  0.22895321     0.14500
C453        C  0.49899088  0.35948902  0.02390925    -0.15100
C454        C  0.46836485  0.38180159  0.00326804    -0.30300
H455        H  0.44340496  0.37341186  0.51676299     0.13900
H456        H  0.30112130  0.37099263  0.01100997     0.14500
C457        C  0.50758810  0.63618535  0.26936236    -0.15100
C458        C  0.47327828  0.61181867  0.26020691    -0.30300
H459        H  0.54119169  0.62545652  0.26750978     0.13900
H460        H  0.31048172  0.62211549  0.27015133     0.14500
C461        C  0.28228305  0.61429082  0.98123759    -0.15500
C462        C  0.24855795  0.63836798  0.97547430    -0.30300
H463        H  0.31656709  0.62447024  0.97964662     0.13900
H464        H  0.46185303  0.62647886  0.46821204     0.14500
C465        C  0.39664155  0.10876909  0.24224099    -0.15100
C466        C  0.36439077  0.13325857  0.23131340    -0.30300
H467        H  0.43013999  0.11877948  0.25139261     0.13900
H468        H  0.33103822  0.12217424  0.22314943     0.14500
C469        C  0.35026636  0.87950308  0.27132327    -0.15100
C470        C  0.38431394  0.85555257  0.27763754    -0.30300
H471        H  0.31592677  0.86952157  0.27208006     0.13900
H472        H  0.41808270  0.86728447  0.27667796     0.14500
C473        C  0.35612858  0.13804318  0.02553638    -0.15100
C474        C  0.39104012  0.11444004  0.02231650    -0.30300
H475        H  0.31468177  0.12516905  0.51491776     0.13900
H476        H  0.42500682  0.12519488  0.02629057     0.14500
C477        C  0.35322518  0.88351749  0.49067647    -0.15100
C478        C  0.38715827  0.85984472  0.48446815    -0.30300
H479        H  0.31893614  0.87351063  0.48800488     0.13900
H480        H  0.42599228  0.86874390  0.98669231     0.14500
O481        O  0.41530827  0.99949254  0.93200338    -0.71600
O482        O  0.40879283  0.99152959  0.57892233    -0.72600
O483        O  0.39983748  0.93938138  0.49922420    -0.61200
O484        O  0.41330914  0.05307219  0.51085047    -0.69600
O485        O  0.34645174  0.05762109  0.01154469    -0.69200
O486        O  0.33223736  0.94455677  0.99754804    -0.60400
O487        O  0.33522899  0.99775553  0.58052151    -0.73000
O488        O  0.34172202  0.00571498  0.93029191    -0.71700
Cu489      Cu  0.40981390  0.99593148  0.50496367     1.04600
Cu490      Cu  0.33721010  0.00114222  0.00451750     1.04300
C491        C  0.37889940  0.00297553  0.90768512     0.94600
C492        C  0.37254869  0.99356628  0.60316369     0.93700
C493        C  0.36619536  0.92346974  0.99537656     0.85900
C494        C  0.37837661  0.07322952  0.51255404     0.92100
O495        O  0.42464695  0.04846772  0.74885467    -0.71600
O496        O  0.40495844  0.93621776  0.76097757    -0.72600
O497        O  0.41165596  0.98926201  0.68027983    -0.61200
O498        O  0.41561480  0.99652102  0.82992491    -0.69600
O499        O  0.34243781  0.00517321  0.82962993    -0.69200
O500        O  0.33818938  0.99615215  0.68192945    -0.60400
O501        O  0.33171675  0.94361311  0.76320828    -0.73000
O502        O  0.35146886  0.05676311  0.74807291    -0.71700
Cu503      Cu  0.41677524  0.99227199  0.75504288     1.04600
Cu504      Cu  0.33841839  0.00064606  0.75582893     1.04300
C505        C  0.39142837  0.07022898  0.74513530     0.94600
C506        C  0.36549660  0.92207066  0.76455243     0.93700
C507        C  0.37418616  0.99248892  0.65764472     0.85900
C508        C  0.37923363  0.00199743  0.85320179     0.92100
C509        C  0.35011172  0.17937113  0.52995034     0.04400
C510        C  0.30997902  0.19916024  0.53322383    -0.11700
C511        C  0.30974977  0.23794132  0.54501399     0.01900
C512        C  0.35094887  0.25643771  0.55414233    -0.10200
C513        C  0.39171255  0.23833243  0.54701960     0.04400
C514        C  0.39074329  0.19964935  0.53519933    -0.09700
H515        H  0.27898484  0.18415908  0.52544506     0.10000
H516        H  0.35134871  0.28528072  0.56672422     0.07600
H517        H  0.42162959  0.18586908  0.52822654     0.07400
C518        C  0.37312347  0.17500760  0.70851678     0.04400
C519        C  0.33418751  0.19540658  0.69983420    -0.11700
C520        C  0.33596063  0.23320849  0.68391264     0.01900
C521        C  0.37798452  0.24983381  0.67424236    -0.10200
C522        C  0.41783055  0.23168635  0.68728998     0.04400
C523        C  0.41505338  0.19374540  0.70355041    -0.09700
H524        H  0.30230813  0.18186672  0.70785887     0.10000
H525        H  0.37963374  0.27785808  0.65829017     0.07600
H526        H  0.44527029  0.17959109  0.71385705     0.07400
C527        C  0.38669038  0.81692602  0.96789435     0.04400
C528        C  0.34511605  0.79768382  0.96300536    -0.11700
C529        C  0.34246591  0.75933055  0.94842137     0.01900
C530        C  0.38252183  0.74086611  0.93773963    -0.10200
C531        C  0.42450338  0.75861977  0.94551364     0.04400
C532        C  0.42570610  0.79666107  0.96038003    -0.09700
H533        H  0.31494397  0.81194318  0.97240767     0.10000
H534        H  0.37750712  0.71716977  0.41921734     0.07600
H535        H  0.45743143  0.81074776  0.96786176     0.07400
C536        C  0.38923053  0.81443761  0.77959656     0.04400
C537        C  0.42879114  0.79389187  0.78135997    -0.11700
C538        C  0.42877527  0.75490541  0.79258917     0.01900
C539        C  0.38738213  0.73659988  0.80227820    -0.10200
C540        C  0.34663964  0.75576451  0.79725945     0.04400
C541        C  0.34837413  0.79480233  0.78592805    -0.09700
H542        H  0.45976582  0.80863869  0.77265409     0.10000
H543        H  0.38692818  0.70732344  0.81357228     0.07600
H544        H  0.31780937  0.80964202  0.77987848     0.07400
C545        C  0.25630050  0.67971540  0.46327582     0.04400
C546        C  0.46107576  0.70065759  0.45419109    -0.11700
C547        C  0.46201410  0.73970740  0.44450526     0.01900
C548        C  0.25442176  0.75730629  0.44166368    -0.10200
C549        C  0.29571825  0.73992388  0.44803810     0.04400
C550        C  0.29591388  0.70103893  0.45851669    -0.09700
H551        H  0.42954384  0.68595535  0.46018547     0.10000
H552        H  0.25415036  0.78654223  0.43022933     0.07600
H553        H  0.32719759  0.68701735  0.46470493     0.07400
C554        C  0.25571958  0.67820279  0.78375816     0.04400
C555        C  0.47257464  0.69504320  0.77792033    -0.11700
C556        C  0.47182836  0.73351800  0.79150325     0.01900
C557        C  0.26299777  0.75456427  0.81106368    -0.10200
C558        C  0.30222078  0.73496875  0.79995628     0.04400
C559        C  0.29799235  0.69644204  0.78696105    -0.09700
H560        H  0.44153911  0.68010652  0.77061376     0.10000
H561        H  0.26546433  0.78312725  0.82454432     0.07600
H562        H  0.32742408  0.68117950  0.77749611     0.07400
C563        C  0.47724123  0.31875216  0.52856180     0.04400
C564        C  0.43659994  0.29873100  0.53359510    -0.11700
C565        C  0.43504680  0.26037187  0.54779548     0.01900
C566        C  0.47549541  0.24243955  0.55850021    -0.10200
C567        C  0.26705114  0.25961605  0.54518725     0.04400
C568        C  0.26695223  0.29850481  0.53301342    -0.09700
H569        H  0.40609299  0.31319722  0.52464470     0.10000
H570        H  0.47469601  0.21395359  0.57282975     0.07600
H571        H  0.29793759  0.31285242  0.52403177     0.07400
C572        C  0.49851281  0.31499792  0.70575689     0.04400
C573        C  0.29765104  0.29503855  0.69647383    -0.11700
C574        C  0.29477942  0.25654553  0.68413113     0.01900
C575        C  0.50289717  0.23772384  0.68349712    -0.10200
C576        C  0.46090970  0.25423272  0.68959695     0.04400
C577        C  0.45972607  0.29277325  0.70096479    -0.09700
H578        H  0.33002887  0.30852357  0.70234201     0.10000
H579        H  0.50372216  0.20865802  0.67214311     0.07600
H580        H  0.42808702  0.30595751  0.70763750     0.07400
O581        O  0.44632212  0.49444323  0.91191464    -0.71600
O582        O  0.47914428  0.50396102  0.56306490    -0.72600
O583        O  0.48415242  0.55709216  0.48205457    -0.61200
O584        O  0.47466829  0.44199898  0.49765743    -0.69600
O585        O  0.28923389  0.44659770  0.50346489    -0.69200
O586        O  0.27366984  0.55943720  0.48971386    -0.60400
O587        O  0.28395614  0.50722280  0.57033479    -0.73000
O588        O  0.30578094  0.49344129  0.92274416    -0.71700
Cu589      Cu  0.47589429  0.49961479  0.48985244     1.04600
Cu590      Cu  0.28445584  0.50327680  0.49648469     1.04300
C591        C  0.48465832  0.49259727  0.89112339     0.94600
C592        C  0.51549205  0.50186239  0.58759036     0.93700
C593        C  0.52305375  0.57302837  0.48052397     0.85900
C594        C  0.51104724  0.42353320  0.49829951     0.92100
O595        O  0.28425066  0.43647525  0.73748161    -0.71600
O596        O  0.30532443  0.54936126  0.75130736    -0.72600
O597        O  0.30066321  0.48804999  0.81902355    -0.61200
O598        O  0.28933342  0.49883269  0.67041547    -0.69600
O599        O  0.47355389  0.49580233  0.66119712    -0.69200
O600        O  0.45558675  0.48674811  0.80854097    -0.60400
O601        O  0.45535025  0.54735099  0.73921379    -0.73000
O602        O  0.47538195  0.43461813  0.73022598    -0.71700
Cu603      Cu  0.29741738  0.49285625  0.74427276     1.04600
Cu604      Cu  0.46242853  0.49068342  0.73428101     1.04300
C605        C  0.51500288  0.42193011  0.73463752     0.94600
C606        C  0.48908761  0.56965457  0.74521533     0.93700
C607        C  0.48949830  0.49184035  0.83678852     0.85900
C608        C  0.51226735  0.50056353  0.64214851     0.92100
C609        C  0.49232094  0.35630231  0.71378996    -0.15100
C610        C  0.52382936  0.38101641  0.72976654    -0.30300
H611        H  0.30057767  0.36883355  0.71231593     0.13900
H612        H  0.55721589  0.37163139  0.73838500     0.14500
C613        C  0.47575952  0.36013462  0.51608198    -0.15100
C614        C  0.51189065  0.38201630  0.50567194    -0.30300
H615        H  0.53108080  0.37215568  0.03413356     0.13900
H616        H  0.29380462  0.37386817  0.51771564     0.14500
C617        C  0.51664766  0.63514242  0.76052056    -0.15100
C618        C  0.48214910  0.61079523  0.75180606    -0.30300
H619        H  0.55009390  0.62388907  0.76035090     0.13900
H620        H  0.31629298  0.62109243  0.76669169     0.14500
C621        C  0.22722935  0.61396605  0.48342619    -0.15500
C622        C  0.26069298  0.63820121  0.47154442    -0.30300
H623        H  0.19355940  0.62377300  0.48817019     0.13900
H624        H  0.54633330  0.62667629  0.97437516     0.14500
C625        C  0.40017495  0.11094687  0.73553103    -0.15100
C626        C  0.36712165  0.13463062  0.72402721    -0.30300
H627        H  0.43469074  0.12058889  0.73528633     0.13900
H628        H  0.33310815  0.12332511  0.72440761     0.14500
C629        C  0.35858411  0.88061814  0.77129654    -0.15100
C630        C  0.39268540  0.85619561  0.76976512    -0.30300
H631        H  0.32483943  0.87071179  0.77888961     0.13900
H632        H  0.42590445  0.86773677  0.76231590     0.14500
C633        C  0.34779732  0.13775138  0.52003703    -0.15100
C634        C  0.38324787  0.11469786  0.51890908    -0.30300
H635        H  0.32266423  0.12574124  0.02221325     0.13900
H636        H  0.41691346  0.12566395  0.52423132     0.14500
C637        C  0.35858313  0.88235795  0.98652488    -0.15100
C638        C  0.39205814  0.85780837  0.98188996    -0.30300
H639        H  0.32423351  0.87290290  0.98147857     0.13900
H640        H  0.42095610  0.87140296  0.48729187     0.14500
O641        O  0.65449476  0.00232108  0.42151287    -0.71600
O642        O  0.66041932  0.99435697  0.06605074    -0.72600
O643        O  0.64947914  0.94067712  0.98686320    -0.61200
O644        O  0.66563335  0.05356761  0.99474538    -0.69600
O645        O  0.58420083  0.06021471  0.49840354    -0.69200
O646        O  0.56825132  0.94734710  0.48472325    -0.60400
O647        O  0.58672078  0.99919355  0.06836160    -0.73000
O648        O  0.58089686  0.00800363  0.41699857    -0.71700
Cu649      Cu  0.66010335  0.99705840  0.99087946     1.04600
Cu650      Cu  0.57364821  0.00390647  0.49117586     1.04300
C651        C  0.61884067  0.00566262  0.39584710     0.94600
C652        C  0.62423666  0.99627894  0.09075798     0.93700
C653        C  0.60261331  0.92661919  0.48445904     0.85900
C654        C  0.63145365  0.07422271  0.99835605     0.92100
O655        O  0.64956083  0.06213265  0.23840551    -0.71600
O656        O  0.67186057  0.95050489  0.25029720    -0.72600
O657        O  0.66176600  0.00244853  0.16912497    -0.61200
O658        O  0.65841781  0.00943841  0.31919665    -0.69600
O659        O  0.58515662  0.99862267  0.31689531    -0.69200
O660        O  0.58855534  0.99144841  0.16888814    -0.60400
O661        O  0.59888719  0.93867192  0.24977052    -0.73000
O662        O  0.57647403  0.05082552  0.23770612    -0.71700
Cu663      Cu  0.66298649  0.00654398  0.24422455     1.04600
Cu664      Cu  0.58480623  0.99441629  0.24309498     1.04300
C665        C  0.60960987  0.07416212  0.23646532     0.94600
C666        C  0.63903625  0.92703481  0.25311683     0.93700
C667        C  0.62517027  0.99631436  0.14546248     0.85900
C668        C  0.62101608  0.00497548  0.34145239     0.92100
C669        C  0.60807016  0.17921130  0.02486698     0.04400
C670        C  0.56872293  0.19841846  0.03487958    -0.11700
C671        C  0.56991521  0.23589323  0.05155979     0.01900
C672        C  0.61174793  0.25332950  0.06052043    -0.10200
C673        C  0.65136651  0.23659016  0.04529568     0.04400
C674        C  0.64925761  0.19914085  0.02800878    -0.09700
H675        H  0.53695807  0.18418541  0.02778592     0.10000
H676        H  0.61342377  0.28096833  0.07703885     0.07600
H677        H  0.67937850  0.18627695  0.01544598     0.07400
C678        C  0.62866113  0.18301876  0.22553085     0.04400
C679        C  0.58725668  0.20089924  0.22804278    -0.11700
C680        C  0.58461696  0.24020572  0.23647130     0.01900
C681        C  0.62519251  0.26116193  0.24213898    -0.10200
C682        C  0.66702493  0.24449624  0.23536187     0.04400
C683        C  0.66772444  0.20541519  0.22618346    -0.09700
H684        H  0.55727370  0.18411379  0.22208546     0.10000
H685        H  0.62454872  0.29042221  0.25252215     0.07600
H686        H  0.69906206  0.19169633  0.21960686     0.07400
C687        C  0.62864113  0.82075839  0.46561799     0.04400
C688        C  0.58797579  0.80018380  0.46222557    -0.11700
C689        C  0.58679591  0.76194656  0.44762278     0.01900
C690        C  0.62730541  0.74483300  0.43675776    -0.10200
C691        C  0.66867408  0.76341088  0.44542636     0.04400
C692        C  0.66864397  0.80163741  0.45895365    -0.09700
H693        H  0.55744794  0.81351719  0.47251803     0.10000
H694        H  0.63140832  0.71630035  0.91489709     0.07600
H695        H  0.69987336  0.81670535  0.46590448     0.07400
C696        C  0.62245588  0.82016102  0.28588885     0.04400
C697        C  0.66441245  0.80280693  0.29005511    -0.11700
C698        C  0.66735465  0.76406604  0.30265092     0.01900
C699        C  0.62748914  0.74370416  0.31349991    -0.10200
C700        C  0.58534060  0.75953056  0.30604516     0.04400
C701        C  0.58365917  0.79787660  0.29261003    -0.09700
H702        H  0.69456176  0.81886306  0.28176228     0.10000
H703        H  0.62920452  0.71489786  0.32658242     0.07600
H704        H  0.55174156  0.81060819  0.28528430     0.07400
C705        C  0.50943062  0.67945166  0.95896272     0.04400
C706        C  0.71627746  0.70202833  0.94809266    -0.11700
C707        C  0.71606087  0.74115329  0.93757487     0.01900
C708        C  0.50776446  0.75637165  0.93252005    -0.10200
C709        C  0.54900072  0.73926791  0.94080033     0.04400
C710        C  0.54915983  0.70068188  0.95373965    -0.09700
H711        H  0.68517465  0.68697859  0.95430479     0.10000
H712        H  0.50735868  0.78525661  0.91944071     0.07600
H713        H  0.58040363  0.68689620  0.96117132     0.07400
C714        C  0.50373932  0.67664576  0.28393939     0.04400
C715        C  0.71028048  0.70536624  0.28432583    -0.11700
C716        C  0.71072574  0.74346134  0.29903284     0.01900
C717        C  0.50176832  0.75187452  0.31527605    -0.10200
C718        C  0.54326517  0.73555361  0.30645797     0.04400
C719        C  0.54362027  0.69748348  0.29206169    -0.09700
H720        H  0.67886142  0.69084211  0.27687012     0.10000
H721        H  0.50108040  0.77998500  0.33022221     0.07600
H722        H  0.57497282  0.68415397  0.28493079     0.07400
C723        C  0.73195885  0.32009683  0.02406807     0.04400
C724        C  0.69270790  0.29835346  0.03079589    -0.11700
C725        C  0.69378085  0.25963674  0.04260136     0.01900
C726        C  0.73536797  0.24267792  0.04819683    -0.10200
C727        C  0.52832337  0.25848457  0.05244206     0.04400
C728        C  0.53054162  0.29710011  0.04064149    -0.09700
H729        H  0.66091841  0.31179329  0.02550448     0.10000
H730        H  0.73633711  0.21353486  0.05998166     0.07600
H731        H  0.56250844  0.31108138  0.03436581     0.07400
C732        C  0.75406488  0.32546371  0.22162141     0.04400
C733        C  0.53631843  0.29865791  0.23002347    -0.11700
C734        C  0.53985677  0.25927255  0.23847150     0.01900
C735        C  0.75049030  0.24927622  0.24858584    -0.10200
C736        C  0.71018759  0.26727398  0.23695404     0.04400
C737        C  0.71239461  0.30614068  0.22469477    -0.09700
H738        H  0.56565850  0.31558456  0.22190872     0.10000
H739        H  0.74938055  0.22107929  0.26385014     0.07600
H740        H  0.68226262  0.32114927  0.21626742     0.07400
O741        O  0.72502832  0.49682875  0.41643950    -0.71600
O742        O  0.70882698  0.50440942  0.06806746    -0.72600
O743        O  0.69617165  0.55465589  0.98561107    -0.61200
O744        O  0.71295056  0.44170935  0.00133495    -0.69600
O745        O  0.51334599  0.43976317  0.99815261    -0.69200
O746        O  0.51879496  0.55538108  0.98245609    -0.60400
O747        O  0.51758707  0.50266004  0.06329351    -0.73000
O748        O  0.54969582  0.49466623  0.41325665    -0.71700
Cu749      Cu  0.70171491  0.49812291  0.99372235     1.04600
Cu750      Cu  0.52010150  0.49758011  0.99036334     1.04300
C751        C  0.76231172  0.49622604  0.39409247     0.94600
C752        C  0.74692388  0.50962115  0.08896493     0.93700
C753        C  0.73048866  0.57636083  0.98027039     0.85900
C754        C  0.75245611  0.42843628  0.00169264     0.92100
O755        O  0.54398939  0.44916017  0.22923956    -0.71600
O756        O  0.52062080  0.55988160  0.24300680    -0.72600
O757        O  0.54153210  0.50059994  0.30971530    -0.61200
O758        O  0.52273102  0.50818643  0.16184907    -0.69600
O759        O  0.71500068  0.51449607  0.16944056    -0.69200
O760        O  0.72401806  0.50500720  0.31798317    -0.60400
O761        O  0.73101247  0.56615580  0.24961657    -0.73000
O762        O  0.70680575  0.45486126  0.23895834    -0.71700
Cu763      Cu  0.53463390  0.50494226  0.23539275     1.04600
Cu764      Cu  0.71681198  0.51060124  0.24414369     1.04300
C765        C  0.73909093  0.43247818  0.23362380     0.94600
C766        C  0.77098420  0.57951543  0.25073634     0.93700
C767        C  0.76132264  0.49844062  0.33942445     0.85900
C768        C  0.75023502  0.51098090  0.14352717     0.92100
C769        C  0.75896068  0.36699812  0.21471299    -0.15100
C770        C  0.72899351  0.39155960  0.23093455    -0.30300
H771        H  0.45407072  0.36758116  0.22725221     0.13900
H772        H  0.69703778  0.38152196  0.24517595     0.14500
C773        C  0.72673676  0.36150924  0.01339501    -0.15100
C774        C  0.76023776  0.38735238  0.00924879    -0.30300
H775        H  0.68950026  0.37310560  0.51200029     0.13900
H776        H  0.43611021  0.37002364  0.99241087     0.14500
C777        C  0.74535336  0.64465676  0.26386225    -0.15100
C778        C  0.77928252  0.62052081  0.25873944    -0.30300
H779        H  0.71150482  0.63330311  0.26000486     0.13900
H780        H  0.43902970  0.62060431  0.26266161     0.14500
C781        C  0.47806915  0.61375286  0.97248523    -0.15500
C782        C  0.51313097  0.63798727  0.96990719    -0.30300
H783        H  0.44451947  0.62388247  0.96769057     0.13900
H784        H  0.70812210  0.63001755  0.47656536     0.14500
C785        C  0.60109744  0.11530931  0.23388136    -0.15100
C786        C  0.63346781  0.14105805  0.22282820    -0.30300
H787        H  0.56771224  0.12420352  0.24270968     0.13900
H788        H  0.66649324  0.13076500  0.21454932     0.14500
C789        C  0.64845902  0.88642390  0.26164251    -0.15100
C790        C  0.61603358  0.86102112  0.27334735    -0.30300
H791        H  0.68298653  0.87810547  0.26024876     0.13900
H792        H  0.58204279  0.87102016  0.27469806     0.14500
C793        C  0.60379282  0.13868077  0.01058292    -0.15100
C794        C  0.63819768  0.11536423  0.00467507    -0.30300
H795        H  0.56138860  0.12685135  0.51632693     0.13900
H796        H  0.67242620  0.12573017  0.00750024     0.14500
C797        C  0.59664751  0.88537848  0.47750167    -0.15100
C798        C  0.63150515  0.86191752  0.47729235    -0.30300
H799        H  0.56297493  0.87487614  0.47042893     0.13900
H800        H  0.67142581  0.87379571  0.97233741     0.14500
O801        O  0.65447726  0.00063743  0.91630851    -0.71600
O802        O  0.64533006  0.99303997  0.56904246    -0.72600
O803        O  0.64173297  0.94142391  0.48908391    -0.61200
O804        O  0.65766474  0.05412345  0.50228635    -0.69600
O805        O  0.59213542  0.05935871  0.99822226    -0.69200
O806        O  0.57597144  0.94648601  0.98955544    -0.60400
O807        O  0.57168997  0.99880477  0.56567888    -0.73000
O808        O  0.58090308  0.00635859  0.91970948    -0.71700
Cu809      Cu  0.65229369  0.99753611  0.49564372     1.04600
Cu810      Cu  0.58143614  0.00307276  0.99411884     1.04300
C811        C  0.61668758  0.00416436  0.89455048     0.94600
C812        C  0.60766367  0.99476251  0.59069872     0.93700
C813        C  0.61015068  0.92580065  0.98596723     0.85900
C814        C  0.62336465  0.07489365  0.50355161     0.92100
O815        O  0.64509139  0.05773886  0.73263380    -0.71600
O816        O  0.64694925  0.94217209  0.74972034    -0.72600
O817        O  0.64431185  0.99477595  0.66805503    -0.61200
O818        O  0.65019347  0.00491168  0.81510389    -0.69600
O819        O  0.57614701  0.00235182  0.81817153    -0.69200
O820        O  0.57017457  0.99424040  0.66874597    -0.60400
O821        O  0.57295498  0.94178669  0.75002715    -0.73000
O822        O  0.57123186  0.05439202  0.73655751    -0.71700
Cu823      Cu  0.64929101  0.99998018  0.74128316     1.04600
Cu824      Cu  0.57015337  0.99810306  0.74356216     1.04300
C825        C  0.60713603  0.07393622  0.73112293     0.94600
C826        C  0.60947978  0.92402553  0.75280287     0.93700
C827        C  0.60699893  0.99401115  0.64501777     0.85900
C828        C  0.61417520  0.00426011  0.84007732     0.92100
C829        C  0.59857446  0.18018525  0.53142802     0.04400
C830        C  0.55890273  0.19991949  0.53816276    -0.11700
C831        C  0.55937405  0.23851963  0.55049931     0.01900
C832        C  0.60098464  0.25668099  0.55848964    -0.10200
C833        C  0.64129639  0.23864468  0.54819609     0.04400
C834        C  0.63955620  0.20023865  0.53482959    -0.09700
H835        H  0.52748583  0.18511224  0.53152465     0.10000
H836        H  0.60195221  0.28534521  0.57169079     0.07600
H837        H  0.67000031  0.18652593  0.52522523     0.07400
C838        C  0.63223733  0.18167755  0.70445891     0.04400
C839        C  0.59080547  0.19990995  0.70138529    -0.11700
C840        C  0.58803585  0.23911545  0.69131230     0.01900
C841        C  0.62843170  0.25978839  0.68374192    -0.10200
C842        C  0.67044403  0.24296685  0.68952291     0.04400
C843        C  0.67143420  0.20380668  0.69960979    -0.09700
H844        H  0.56062929  0.18385967  0.70846327     0.10000
H845        H  0.62739863  0.28917236  0.67303903     0.07600
H846        H  0.70295667  0.19019819  0.70551109     0.07400
C847        C  0.63390143  0.82035088  0.95939604     0.04400
C848        C  0.59291895  0.80037834  0.95433630    -0.11700
C849        C  0.59170849  0.76207913  0.94009745     0.01900
C850        C  0.63215979  0.74455478  0.92947041    -0.10200
C851        C  0.67348154  0.76265924  0.93875248     0.04400
C852        C  0.67361800  0.80072730  0.95329701    -0.09700
H853        H  0.56218625  0.81405282  0.96292292     0.10000
H854        H  0.62652726  0.71657719  0.42217855     0.07600
H855        H  0.70484930  0.81538089  0.96151350     0.07400
C856        C  0.63869631  0.81829177  0.78013124     0.04400
C857        C  0.67883913  0.79909117  0.78658028    -0.11700
C858        C  0.67971958  0.76010795  0.79776058     0.01900
C859        C  0.63844940  0.74060081  0.80353271    -0.10200
C860        C  0.59741244  0.75818507  0.79388731     0.04400
C861        C  0.59817317  0.79725351  0.78258031    -0.09700
H862        H  0.70953420  0.81490202  0.78073484     0.10000
H863        H  0.63807077  0.71140174  0.81539693     0.07600
H864        H  0.56721652  0.81080765  0.77420482     0.07400
C865        C  0.50043110  0.68018767  0.45863197     0.04400
C866        C  0.70969792  0.70312710  0.45717013    -0.11700
C867        C  0.71111694  0.74177826  0.44550905     0.01900
C868        C  0.50343107  0.75809317  0.43774099    -0.10200
C869        C  0.54363733  0.73950359  0.44620519     0.04400
C870        C  0.54181849  0.70014822  0.45613260    -0.09700
H871        H  0.67814195  0.68888668  0.46450203     0.10000
H872        H  0.50432346  0.78736215  0.42640340     0.07600
H873        H  0.57235751  0.68557896  0.46329428     0.07400
C874        C  0.51337700  0.67632644  0.77232442     0.04400
C875        C  0.72544591  0.70082709  0.78756388    -0.11700
C876        C  0.72354254  0.73970232  0.79872232     0.01900
C877        C  0.51296507  0.75242085  0.80094081    -0.10200
C878        C  0.55417896  0.73544390  0.79201370     0.04400
C879        C  0.55358359  0.69720064  0.77803901    -0.09700
H880        H  0.69496276  0.68466146  0.78251476     0.10000
H881        H  0.51293508  0.78084557  0.81513007     0.07600
H882        H  0.58463434  0.68343737  0.77028677     0.07400
C883        C  0.72543186  0.31985628  0.52809913     0.04400
C884        C  0.68527277  0.29928109  0.53374004    -0.11700
C885        C  0.68459860  0.26071418  0.54678525     0.01900
C886        C  0.72554977  0.24278810  0.55455218    -0.10200
C887        C  0.51696639  0.26055678  0.54969292     0.04400
C888        C  0.51730142  0.29897025  0.53528430    -0.09700
H889        H  0.65435633  0.31353803  0.52642788     0.10000
H890        H  0.72551363  0.21389897  0.56746613     0.07600
H891        H  0.54883946  0.31294362  0.52807430     0.07400
C892        C  0.75635405  0.32449431  0.70652198     0.04400
C893        C  0.54030416  0.29759761  0.70209099    -0.11700
C894        C  0.54331635  0.25852404  0.69150461     0.01900
C895        C  0.75390542  0.24904902  0.67619251    -0.10200
C896        C  0.71338282  0.26615874  0.68814611     0.04400
C897        C  0.71509689  0.30438525  0.70288763    -0.09700
H898        H  0.57021012  0.31442829  0.70821400     0.10000
H899        H  0.75322333  0.22087296  0.66119484     0.07600
H900        H  0.68465129  0.31777838  0.71337703     0.07400
O901        O  0.69939845  0.49337622  0.91873300    -0.71600
O902        O  0.71628872  0.50758006  0.56243644    -0.72600
O903        O  0.72821971  0.55939051  0.48137848    -0.61200
O904        O  0.71893449  0.44398889  0.49842468    -0.69600
O905        O  0.54852563  0.44083867  0.49354254    -0.69200
O906        O  0.55789315  0.55321065  0.48435810    -0.60400
O907        O  0.55289643  0.49949010  0.56500895    -0.73000
O908        O  0.52020243  0.49271840  0.91720661    -0.71700
Cu909      Cu  0.71946794  0.50194805  0.48938651     1.04600
Cu910      Cu  0.55486069  0.49695092  0.48899521     1.04300
C911        C  0.73515740  0.49709100  0.89339865     0.94600
C912        C  0.75134037  0.50752205  0.58925279     0.93700
C913        C  0.76738646  0.57500544  0.48155887     0.85900
C914        C  0.75574540  0.42628965  0.50335923     0.92100
O915        O  0.54792944  0.44456144  0.74249277    -0.71600
O916        O  0.52848660  0.55648852  0.74695822    -0.72600
O917        O  0.52839690  0.49736391  0.81831060    -0.61200
O918        O  0.54689532  0.50338270  0.66995486    -0.69600
O919        O  0.70769367  0.50844882  0.66324963    -0.69200
O920        O  0.69760631  0.50006494  0.81389450    -0.60400
O921        O  0.70300448  0.56030937  0.74311980    -0.73000
O922        O  0.69721606  0.44903241  0.73247379    -0.71700
Cu923      Cu  0.54040494  0.50075636  0.74485846     1.04600
Cu924      Cu  0.69881327  0.50459865  0.73803110     1.04300
C925        C  0.73246694  0.42978391  0.73114814     0.94600
C926        C  0.73978334  0.57835156  0.74892541     0.93700
C927        C  0.73416900  0.49781893  0.83873348     0.85900
C928        C  0.74658025  0.50870342  0.64345331     0.92100
C929        C  0.76089632  0.36525517  0.71987762    -0.15100
C930        C  0.72668019  0.38886868  0.72234376    -0.30300
H931        H  0.45922864  0.36702997  0.70606297     0.13900
H932        H  0.69289509  0.37872109  0.71560746     0.14500
C933        C  0.72247228  0.36132271  0.51626218    -0.15100
C934        C  0.75798612  0.38496834  0.51222953    -0.30300
H935        H  0.69278563  0.37155663  0.01010002     0.13900
H936        H  0.54462980  0.36983408  0.50405332     0.14500
C937        C  0.77069468  0.64160393  0.77201898    -0.15100
C938        C  0.73736171  0.61975165  0.75397532    -0.30300
H939        H  0.80247742  0.62863399  0.78047867     0.13900
H940        H  0.44809398  0.62041101  0.75129377     0.14500
C941        C  0.52949863  0.61448372  0.47360581    -0.15500
C942        C  0.49553692  0.63837248  0.46742772    -0.30300
H943        H  0.56362102  0.62495445  0.47274663     0.13900
H944        H  0.79220609  0.62904978  0.96000833     0.14500
C945        C  0.60259079  0.11531085  0.72246434    -0.15100
C946        C  0.63688961  0.13987285  0.71415624    -0.30300
H947        H  0.56866345  0.12519048  0.72237341     0.13900
H948        H  0.67039608  0.12874334  0.71434136     0.14500
C949        C  0.60638646  0.88231854  0.76022608    -0.15100
C950        C  0.64157182  0.86016508  0.76969347    -0.30300
H951        H  0.57294793  0.87015436  0.75920256     0.13900
H952        H  0.67451248  0.87359751  0.77074382     0.14500
C953        C  0.59495410  0.13908392  0.51894600    -0.15100
C954        C  0.62962702  0.11595942  0.51237961    -0.30300
H955        H  0.57008840  0.12674199  0.00786020     0.13900
H956        H  0.66378621  0.12646618  0.51549422     0.14500
C957        C  0.60345992  0.88457495  0.97924334    -0.15100
C958        C  0.63778367  0.86144799  0.97149443    -0.30300
H959        H  0.56922729  0.87385119  0.97864508     0.13900
H960        H  0.66474167  0.87399356  0.48362305     0.14500
O961        O  0.90788934  0.00153241  0.41818833    -0.71600
O962        O  0.90955362  0.99470313  0.06703585    -0.72600
O963        O  0.90171661  0.94329285  0.98582629    -0.61200
O964        O  0.91962282  0.05642393  0.00017093    -0.69600
O965        O  0.83979104  0.05990955  0.49763805    -0.69200
O966        O  0.82812708  0.94698623  0.48892187    -0.60400
O967        O  0.83621504  0.00246300  0.06549860    -0.73000
O968        O  0.83415384  0.00659423  0.41816783    -0.71700
Cu969      Cu  0.91382857  0.99953938  0.99310866     1.04600
Cu970      Cu  0.83226352  0.00347641  0.49322443     1.04300
C971        C  0.87105869  0.00462982  0.39470723     0.94600
C972        C  0.87262178  0.99792636  0.08974613     0.93700
C973        C  0.86226610  0.92622312  0.48656623     0.85900
C974        C  0.88542552  0.07744962  0.00109240     0.92100
O975        O  0.92079624  0.05336803  0.23921155    -0.71600
O976        O  0.89895265  0.94135764  0.24785459    -0.72600
O977        O  0.90922010  0.99459194  0.16835495    -0.61200
O978        O  0.90845647  0.00005563  0.31761450    -0.69600
O979        O  0.83534036  0.00905456  0.31587914    -0.69200
O980        O  0.83597445  0.00284931  0.16720640    -0.60400
O981        O  0.82577138  0.94955397  0.24685799    -0.73000
O982        O  0.84786336  0.06270868  0.23680324    -0.71700
Cu983      Cu  0.91187419  0.99705681  0.24316152     1.04600
Cu984      Cu  0.83367530  0.00637962  0.24147218     1.04300
C985        C  0.88810882  0.07580813  0.23703471     0.94600
C986        C  0.85918246  0.92774967  0.25007036     0.93700
C987        C  0.87253040  0.99802360  0.14430254     0.85900
C988        C  0.87161007  0.00489208  0.34020759     0.92100
C989        C  0.85921221  0.18365081  0.01952832     0.04400
C990        C  0.81924203  0.20351064  0.02252784    -0.11700
C991        C  0.81870718  0.24174963  0.03680139     0.01900
C992        C  0.85967300  0.25989287  0.04827282    -0.10200
C993        C  0.90066079  0.24159426  0.04185805     0.04400
C994        C  0.89974115  0.20340381  0.02751831    -0.09700
H995        H  0.78835727  0.18886769  0.01275513     0.10000
H996        H  0.85949944  0.28840857  0.06194747     0.07600
H997        H  0.93068594  0.18952381  0.02057434     0.07400
C998        C  0.87187075  0.18458822  0.23488675     0.04400
C999        C  0.83325064  0.20603177  0.23332859    -0.11700
C1000       C  0.83440579  0.24487712  0.24315515     0.01900
C1001       C  0.87593816  0.26251601  0.25375771    -0.10200
C1002       C  0.91620736  0.24281860  0.25073382     0.04400
C1003       C  0.91352033  0.20341579  0.24153282    -0.09700
H1004       H  0.80197120  0.19196533  0.22404481     0.10000
H1005       H  0.87682350  0.29173422  0.26465034     0.07600
H1006       H  0.94364706  0.18761270  0.23836364     0.07400
C1007       C  0.88222526  0.81898136  0.46717796     0.04400
C1008       C  0.84049259  0.79984962  0.46287772    -0.11700
C1009       C  0.83753210  0.76157958  0.44814630     0.01900
C1010       C  0.87750807  0.74311307  0.43733897    -0.10200
C1011       C  0.91968799  0.76062125  0.44564213     0.04400
C1012       C  0.92114217  0.79860045  0.46016292    -0.09700
H1013       H  0.81048816  0.81422315  0.47262884     0.10000
H1014       H  0.88143497  0.71846191  0.91714859     0.07600
H1015       H  0.95289178  0.81259714  0.46764122     0.07400
C1016       C  0.88094993  0.82187332  0.27880827     0.04400
C1017       C  0.92023113  0.80150696  0.28608280    -0.11700
C1018       C  0.91904732  0.76309710  0.30002773     0.01900
C1019       C  0.87698126  0.74548793  0.30765085    -0.10200
C1020       C  0.83693392  0.76434361  0.29730477     0.04400
C1021       C  0.83947283  0.80274268  0.28336112    -0.09700
H1022       H  0.95192371  0.81571194  0.27909642     0.10000
H1023       H  0.87531645  0.71663290  0.32101586     0.07600
H1024       H  0.80916464  0.81710761  0.27438161     0.07400
C1025       C  0.75664348  0.68266031  0.95247476     0.04400
C1026       C  0.96393371  0.70381473  0.95506084    -0.11700
C1027       C  0.96545283  0.74251101  0.94291593     0.01900
C1028       C  0.75720823  0.76032477  0.93025066    -0.10200
C1029       C  0.79800520  0.74245363  0.93850087     0.04400
C1030       C  0.79697245  0.70340311  0.94897028    -0.09700
H1031       H  0.93230425  0.68963843  0.96202535     0.10000
H1032       H  0.75752161  0.78946439  0.91857668     0.07600
H1033       H  0.82764069  0.68880519  0.95637059     0.07400
C1034       C  0.74970085  0.68554871  0.27710922     0.04400
C1035       C  0.96087249  0.70227385  0.28983764    -0.11700
C1036       C  0.96134414  0.74088338  0.30208301     0.01900
C1037       C  0.75250489  0.76169172  0.30649960    -0.10200
C1038       C  0.79287906  0.74324821  0.29659372     0.04400
C1039       C  0.79083891  0.70502655  0.28209301    -0.09700
H1040       H  0.92960177  0.68786536  0.28131298     0.10000
H1041       H  0.75358907  0.79048316  0.31964590     0.07600
H1042       H  0.82122765  0.69099096  0.27296334     0.07400
C1043       C  0.98765661  0.32156772  0.03252897     0.04400
C1044       C  0.94676884  0.30174013  0.03472346    -0.11700
C1045       C  0.94436963  0.26293317  0.04577732     0.01900
C1046       C  0.98439076  0.24409415  0.05612588    -0.10200
C1047       C  0.77548989  0.26263724  0.03810824     0.04400
C1048       C  0.77342673  0.30170841  0.02663543    -0.09700
H1049       H  0.91669367  0.31683754  0.02598325     0.10000
H1050       H  0.98282429  0.21504432  0.06830307     0.07600
H1051       H  0.80384336  0.31725618  0.01822987     0.07400
C1052       C  0.00771389  0.32096533  0.24523785     0.04400
C1053       C  0.79337760  0.30507280  0.22618291    -0.11700
C1054       C  0.79230928  0.26689954  0.24011139     0.01900
C1055       C  0.99939676  0.24410696  0.26938263    -0.10200
C1056       C  0.96066885  0.26361584  0.25547050     0.04400
C1057       C  0.96540703  0.30263689  0.24401955    -0.09700
H1058       H  0.82496525  0.31949768  0.21932941     0.10000
H1059       H  0.99618462  0.21545617  0.28255270     0.07600
H1060       H  0.93676486  0.31855259  0.23253713     0.07400
O1061       O  0.97535304  0.49703681  0.42876861    -0.71600
O1062       O  0.98169451  0.50770545  0.07499195    -0.72600
O1063       O  0.98665865  0.56063894  0.99347434    -0.61200
O1064       O  0.98253990  0.44523517  0.00862014    -0.69600
O1065       O  0.78623595  0.45064634  0.99628257    -0.69200
O1066       O  0.76965022  0.56270331  0.98129344    -0.60400
O1067       O  0.78239583  0.51193308  0.06297733    -0.73000
O1068       O  0.79903706  0.49569400  0.41886276    -0.71700
Cu1069     Cu  0.98081285  0.50301540  0.00115129     1.04600
Cu1070     Cu  0.78024557  0.50697932  0.98869688     1.04300
C1071       C  0.01173589  0.49596897  0.40461961     0.94600
C1072       C  0.01799397  0.50765870  0.09987325     0.93700
C1073       C  0.02511992  0.57736475  0.99234817     0.85900
C1074       C  0.01973071  0.42789372  0.01127824     0.92100
O1075       O  0.77944549  0.44521189  0.23218228    -0.71600
O1076       O  0.80399033  0.55751588  0.24621582    -0.72600
O1077       O  0.79681106  0.49522673  0.31390265    -0.61200
O1078       O  0.78817823  0.50681184  0.16464878    -0.69600
O1079       O  0.97841706  0.51097252  0.17644099    -0.69200
O1080       O  0.97410542  0.50273270  0.32659187    -0.60400
O1081       O  0.98559132  0.56272174  0.25730358    -0.73000
O1082       O  0.96294260  0.45191826  0.24659641    -0.71700
Cu1083     Cu  0.79474426  0.50092994  0.23893137     1.04600
Cu1084     Cu  0.97274577  0.50745972  0.25149748     1.04300
C1085       C  0.99515482  0.42916175  0.24558000     0.94600
C1086       C  0.02515048  0.57639465  0.26140458     0.93700
C1087       C  0.01065161  0.49689639  0.35014583     0.85900
C1088       C  0.01593908  0.50761786  0.15442574     0.92100
C1089       C  0.01530353  0.36231387  0.23780824    -0.15100
C1090       C  0.98417394  0.38828807  0.24453256    -0.30300
H1091       H  0.79086172  0.37799303  0.20128141     0.13900
H1092       H  0.94983394  0.37966970  0.25211521     0.14500
C1093       C  0.98614236  0.36332740  0.02281281    -0.15100
C1094       C  0.02212467  0.38635897  0.01799909    -0.30300
H1095       H  0.94463408  0.37492120  0.52324012     0.13900
H1096       H  0.79466394  0.37877563  0.01248200     0.14500
C1097       C  0.99715631  0.64082101  0.27446544    -0.15100
C1098       C  0.03197939  0.61748178  0.26915645    -0.30300
H1099       H  0.96361137  0.62878283  0.27137440     0.13900
H1100       H  0.81371143  0.63014963  0.26242081     0.14500
C1101       C  0.72444753  0.61745868  0.97234720    -0.15500
C1102       C  0.75920416  0.64105033  0.96190852    -0.30300
H1103       H  0.69082122  0.62779885  0.97471745     0.13900
H1104       H  0.96133234  0.62552301  0.46772546     0.14500
C1105       C  0.89788637  0.11710089  0.23624362    -0.15100
C1106       C  0.86572171  0.14267573  0.23005475    -0.30300
H1107       H  0.93219967  0.12612604  0.24260046     0.13900
H1108       H  0.83186773  0.13205944  0.22373412     0.14500
C1109       C  0.85143890  0.88668201  0.25809242    -0.15100
C1110       C  0.88553067  0.86288861  0.26561781    -0.30300
H1111       H  0.81711103  0.87682545  0.26005379     0.13900
H1112       H  0.91932601  0.87447425  0.26359789     0.14500
C1113       C  0.85672549  0.14248183  0.00728016    -0.15100
C1114       C  0.89142157  0.11868136  0.00868460    -0.30300
H1115       H  0.81386096  0.12721834  0.50969538     0.13900
H1116       H  0.92494144  0.12881944  0.01751530     0.14500
C1117       C  0.85463449  0.88494920  0.48023217    -0.15100
C1118       C  0.88783613  0.86000824  0.47962914    -0.30300
H1119       H  0.82045327  0.87556897  0.47368938     0.13900
H1120       H  0.92198468  0.87547876  0.97600308     0.14500
O1121       O  0.91425140  0.00487727  0.91905813    -0.71600
O1122       O  0.91088331  0.99544329  0.56616358    -0.72600
O1123       O  0.90165954  0.94115851  0.48814003    -0.61200
O1124       O  0.91352048  0.05604498  0.49649113    -0.69600
O1125       O  0.84620988  0.06293029  0.99675954    -0.69200
O1126       O  0.82840251  0.95065258  0.98449129    -0.60400
O1127       O  0.83711428  0.00010796  0.56797268    -0.73000
O1128       O  0.84071180  0.01137907  0.91634884    -0.71700
Cu1129     Cu  0.91108720  0.99839351  0.49213982     1.04600
Cu1130     Cu  0.83532159  0.00706256  0.99069132     1.04300
C1131       C  0.87827576  0.00922656  0.89432010     0.94600
C1132       C  0.87472461  0.99756605  0.59050595     0.93700
C1133       C  0.86204186  0.92925221  0.98237219     0.85900
C1134       C  0.87833260  0.07592509  0.49937936     0.92100
O1135       O  0.92629099  0.05700554  0.73585253    -0.71600
O1136       O  0.90666255  0.94454847  0.74956171    -0.72600
O1137       O  0.91401331  0.99637994  0.66781249    -0.61200
O1138       O  0.91647200  0.00501833  0.81725024    -0.69600
O1139       O  0.84328575  0.01373104  0.81583842    -0.69200
O1140       O  0.84057538  0.00353640  0.66872362    -0.60400
O1141       O  0.83339795  0.95201646  0.75057474    -0.73000
O1142       O  0.85318650  0.06539897  0.73430825    -0.71700
Cu1143     Cu  0.91846358  0.00051827  0.74256658     1.04600
Cu1144     Cu  0.84012440  0.00899325  0.74230595     1.04300
C1145       C  0.89318262  0.07896969  0.73233322     0.94600
C1146       C  0.86716142  0.93051309  0.75331398     0.93700
C1147       C  0.87657238  0.99876014  0.64489121     0.85900
C1148       C  0.87966147  0.00991859  0.83994667     0.92100
C1149       C  0.84934640  0.18157867  0.52452115     0.04400
C1150       C  0.80930588  0.20120871  0.53043768    -0.11700
C1151       C  0.80926672  0.23964960  0.54433969     0.01900
C1152       C  0.85058715  0.25772279  0.55436527    -0.10200
C1153       C  0.89127402  0.23977103  0.54548951     0.04400
C1154       C  0.88998663  0.20177319  0.53014425    -0.09700
H1155       H  0.77809220  0.18644835  0.52261440     0.10000
H1156       H  0.85093286  0.28607924  0.56864623     0.07600
H1157       H  0.92066471  0.18837986  0.52125181     0.07400
C1158       C  0.87520669  0.18618445  0.70565250     0.04400
C1159       C  0.83634558  0.20682827  0.69871990    -0.11700
C1160       C  0.83777099  0.24536303  0.68601457     0.01900
C1161       C  0.87981995  0.26340760  0.67985195    -0.10200
C1162       C  0.91964063  0.24448880  0.69019333     0.04400
C1163       C  0.91687566  0.20548204  0.70252498    -0.09700
H1164       H  0.80457577  0.19258594  0.70521040     0.10000
H1165       H  0.88173903  0.29244133  0.66757164     0.07600
H1166       H  0.94700707  0.19058602  0.71108861     0.07400
C1167       C  0.88399190  0.82289931  0.95954463     0.04400
C1168       C  0.84280418  0.80326238  0.95365632    -0.11700
C1169       C  0.84130969  0.76478677  0.93993032     0.01900
C1170       C  0.88193111  0.74680986  0.93137299    -0.10200
C1171       C  0.92328381  0.76462522  0.94176459     0.04400
C1172       C  0.92364175  0.80286759  0.95516684    -0.09700
H1173       H  0.81225206  0.81737650  0.96130188     0.10000
H1174       H  0.87572494  0.71473201  0.42308670     0.07600
H1175       H  0.95489462  0.81723400  0.96373925     0.07400
C1176       C  0.89082469  0.82391213  0.77754528     0.04400
C1177       C  0.93060063  0.80372101  0.78268022    -0.11700
C1178       C  0.93015636  0.76537760  0.79709627     0.01900
C1179       C  0.88896399  0.74777193  0.80747885    -0.10200
C1180       C  0.84844476  0.76575844  0.79781418     0.04400
C1181       C  0.84971879  0.80423307  0.78363860    -0.09700
H1182       H  0.96194809  0.81797235  0.77417368     0.10000
H1183       H  0.88849026  0.71935560  0.82217758     0.07600
H1184       H  0.81894792  0.81817445  0.77540527     0.07400
C1185       C  0.74839162  0.68218722  0.46169851     0.04400
C1186       C  0.96067746  0.69995145  0.45652314    -0.11700
C1187       C  0.96193438  0.73857089  0.44471894     0.01900
C1188       C  0.75315258  0.75967660  0.43860798    -0.10200
C1189       C  0.79320910  0.74037115  0.44720346     0.04400
C1190       C  0.79027208  0.70119854  0.45809122    -0.09700
H1191       H  0.92909225  0.68552149  0.46313765     0.10000
H1192       H  0.75477483  0.78889861  0.42708330     0.07600
H1193       H  0.82041142  0.68608099  0.46565643     0.07400
C1194       C  0.76667443  0.68288268  0.78171792     0.04400
C1195       C  0.97102747  0.70415747  0.78587786    -0.11700
C1196       C  0.97202151  0.74287375  0.79789990     0.01900
C1197       C  0.76431975  0.75969325  0.80637504    -0.10200
C1198       C  0.80567523  0.74298311  0.79772993     0.04400
C1199       C  0.80603370  0.70448483  0.78546670    -0.09700
H1200       H  0.93956647  0.69006839  0.77739647     0.10000
H1201       H  0.76417547  0.78853704  0.81883290     0.07600
H1202       H  0.83713750  0.69095389  0.77706787     0.07400
C1203       C  0.97804792  0.32005798  0.53444665     0.04400
C1204       C  0.93710013  0.30035979  0.53830336    -0.11700
C1205       C  0.93499762  0.26126901  0.54812026     0.01900
C1206       C  0.97529065  0.24228750  0.55616646    -0.10200
C1207       C  0.76656341  0.26145195  0.54504430     0.04400
C1208       C  0.76604349  0.30031413  0.53248393    -0.09700
H1209       H  0.90682843  0.31570627  0.53158771     0.10000
H1210       H  0.97413884  0.21305622  0.56770330     0.07600
H1211       H  0.79723289  0.31464939  0.52421992     0.07400
C1212       C  0.00991400  0.32207679  0.71143759     0.04400
C1213       C  0.79590990  0.30515176  0.69914060    -0.11700
C1214       C  0.79547007  0.26717335  0.68505621     0.01900
C1215       C  0.00308983  0.24681668  0.67929758    -0.10200
C1216       C  0.96375826  0.26578088  0.69077641     0.04400
C1217       C  0.96750768  0.30405161  0.70598367    -0.09700
H1218       H  0.82731194  0.31983224  0.70649363     0.10000
H1219       H  0.00061221  0.21862110  0.66449909     0.07600
H1220       H  0.93776067  0.31912963  0.71518486     0.07400
O1221       O  0.98294277  0.49845209  0.92759644    -0.71600
O1222       O  0.97938754  0.50613618  0.57653585    -0.72600
O1223       O  0.98271872  0.55843779  0.49544489    -0.61200
O1224       O  0.97560761  0.44374077  0.51028759    -0.69600
O1225       O  0.79291055  0.44423981  0.50159361    -0.69200
O1226       O  0.80182148  0.55520488  0.48766931    -0.60400
O1227       O  0.79002266  0.50480398  0.56944994    -0.73000
O1228       O  0.77295119  0.50166210  0.91510799    -0.71700
Cu1229     Cu  0.97554923  0.50133446  0.50280726     1.04600
Cu1230     Cu  0.79845095  0.49978929  0.49465781     1.04300
C1231       C  0.01966034  0.49758498  0.90414698     0.94600
C1232       C  0.01658411  0.50588672  0.59977338     0.93700
C1233       C  0.02150792  0.57446474  0.49350999     0.85900
C1234       C  0.01229479  0.42571090  0.51212627     0.92100
O1235       O  0.77106432  0.44590319  0.73598621    -0.71600
O1236       O  0.77680688  0.56075263  0.75061582    -0.72600
O1237       O  0.77155755  0.49794117  0.81656890    -0.61200
O1238       O  0.78156896  0.50821894  0.67038849    -0.69600
O1239       O  0.98024752  0.51143282  0.67752028    -0.69200
O1240       O  0.98138719  0.50303795  0.82683871    -0.60400
O1241       O  0.99203318  0.56321855  0.75777573    -0.73000
O1242       O  0.96642701  0.45196195  0.74616119    -0.71700
Cu1243     Cu  0.77785137  0.50318283  0.74370828     1.04600
Cu1244     Cu  0.97755966  0.50779854  0.75217642     1.04300
C1245       C  0.99816025  0.42882283  0.74224025     0.94600
C1246       C  0.03201774  0.57635278  0.76010940     0.93700
C1247       C  0.01833710  0.49737851  0.84961774     0.85900
C1248       C  0.01673337  0.50688512  0.65407988     0.92100
C1249       C  0.01789640  0.36239343  0.72631080    -0.15100
C1250       C  0.98652204  0.38837552  0.73293959    -0.30300
H1251       H  0.79434772  0.37682580  0.72581568     0.13900
H1252       H  0.95147233  0.38066695  0.72909978     0.14500
C1253       C  0.97707565  0.36186502  0.52506029    -0.15100
C1254       C  0.01358481  0.38429101  0.51958879    -0.30300
H1255       H  0.95342926  0.37595505  0.02048619     0.13900
H1256       H  0.79129918  0.37433367  0.51699867     0.14500
C1257       C  0.00613710  0.64187312  0.77212036    -0.15100
C1258       C  0.04016107  0.61759236  0.76733068    -0.30300
H1259       H  0.97227594  0.63041748  0.76902739     0.13900
H1260       H  0.70564248  0.63208031  0.74412064     0.14500
C1261       C  0.77504269  0.61598251  0.47369707    -0.15500
C1262       C  0.74205286  0.64082347  0.47173471    -0.30300
H1263       H  0.80936830  0.62535867  0.46892994     0.13900
H1264       H  0.96438661  0.62882906  0.96592561     0.14500
C1265       C  0.90217145  0.12014795  0.72500484    -0.15100
C1266       C  0.86924747  0.14480982  0.71691276    -0.30300
H1267       H  0.93676640  0.12964809  0.72477428     0.13900
H1268       H  0.83515265  0.13367872  0.71721869     0.14500
C1269       C  0.86017961  0.88932031  0.76239106    -0.15100
C1270       C  0.89443204  0.86507607  0.76423805    -0.30300
H1271       H  0.82631690  0.87954543  0.76955724     0.13900
H1272       H  0.92784955  0.87640216  0.75725623     0.14500
C1273       C  0.84704915  0.14015360  0.51220531    -0.15100
C1274       C  0.88267114  0.11755454  0.50634833    -0.30300
H1275       H  0.82373892  0.13071177  0.99864494     0.13900
H1276       H  0.91640646  0.12895964  0.50871707     0.14500
C1277       C  0.85429826  0.88817596  0.97467219    -0.15100
C1278       C  0.88825306  0.86402927  0.97139362    -0.30300
H1279       H  0.82003230  0.87840963  0.97001043     0.13900
H1280       H  0.92168254  0.87073844  0.48590591     0.14500
loop_ 
_geom_bond_atom_site_label_1 
_geom_bond_atom_site_label_2 
_geom_bond_distance 
_geom_bond_site_symmetry_2 
_ccdc_geom_bond_type 
O1           C11   1.274       .  A
O1         Cu169   1.988   1_545  S
O2           C12   1.276       .  A
O2           Cu9   2.005       .  S
O3          C173   1.282       .  A
O3           Cu9   2.030   1_556  S
O4           C14   1.281       .  A
O4           Cu9   2.030   1_545  S
O5          C174   1.277       .  A
O5          Cu10   2.015       .  S
O6           C13   1.277       .  A
O6          Cu10   2.014   1_565  S
O7           C12   1.279       .  A
O7         Cu170   2.014   1_564  S
O8           C11   1.280       .  A
O8          Cu10   2.016       .  S
Cu9         O161   2.009   1_564  S
Cu9        Cu170   2.373   1_564  S
Cu10        O167   2.022   1_545  S
Cu10       Cu169   2.373   1_545  S
C11          C28   1.462       .  S
C12          C27   1.467       .  S
C13         O163   1.283       .  A
C13         C157   1.491       .  S
C14         O165   1.278       .  A
C14         C154   1.486       .  S
O15          C25   1.275       .  A
O15         Cu23   2.002   1_545  S
O16          C26   1.277       .  A
O16         Cu23   2.005       .  S
O17          C27   1.279       .  A
O17         Cu23   2.015       .  S
O18          C28   1.279   1_565  A
O18         Cu23   2.006       .  S
O19          C28   1.275       .  A
O19         Cu24   1.999       .  S
O20          C27   1.276       .  A
O20         Cu24   2.000   1_565  S
O21          C26   1.281       .  A
O21         Cu24   2.029   1_565  S
O22          C25   1.282       .  A
O22         Cu24   2.030       .  S
Cu23        Cu24   2.375   1_565  S
C25         C145   1.480       .  S
C26         C149   1.483       .  S
C29         C153   1.503       .  S
C29          C30   1.410       .  A
C29          C34   1.408       .  A
C30          C31   1.416       .  A
C30          H35   1.083       .  S
C31          C87   1.513       .  S
C31          C32   1.408       .  A
C32          C33   1.412       .  A
C32          H36   1.079       .  S
C33          C85   1.503       .  S
C33          C34   1.409       .  A
C34          H37   1.076       .  S
C38         C146   1.492       .  S
C38          C39   1.396       .  A
C38          C43   1.410       .  A
C39          C40   1.403       .  A
C39          H44   1.079       .  S
C40          C94   1.499       .  S
C40          C41   1.411       .  A
C41          C42   1.408       .  A
C41          H45   1.080       .  S
C42          C96   1.509       .  S
C42          C43   1.418       .  A
C43          H46   1.079       .  S
C47         C158   1.506       .  S
C47          C48   1.414       .  A
C47          C52   1.401       .  A
C48          C49   1.420       .  A
C48          H53   1.076       .  S
C49         C229   1.515       .  S
C49          C50   1.414       .  A
C50          C51   1.410       .  A
C50         H214   1.080       .  S
C51         C227   1.506       .  S
C51          C52   1.409       .  A
C52          H55   1.081       .  S
H54         C210   1.079       .  S
C56         C150   1.498       .  S
C56          C57   1.406       .  A
C56          C61   1.407       .  A
C57          C58   1.411       .  A
C57          H62   1.082       .  S
C58          C76   1.503       .  S
C58          C59   1.407       .  A
C59          C60   1.410       .  A
C59          H63   1.080       .  S
C60          C78   1.501       .  S
C60          C61   1.410       .  A
C61          H64   1.076       .  S
C65         C142   1.503   1_455  S
C65          C70   1.414       .  A
C65        C1026   1.400   1_455  A
C66          C67   1.407       .  A
C66         C385   1.401       .  A
C66          H71   1.082       .  S
C67         C211   1.503       .  S
C67         C388   1.411       .  A
C68          C69   1.410       .  A
C68        C1027   1.409   1_455  A
C68          H72   1.080       .  S
C69         C209   1.512       .  S
C69          C70   1.418       .  A
C70          H73   1.076       .  S
C74        C1097   1.498   1_455  S
C74          C79   1.405       .  A
C74        C1035   1.407   1_455  A
C75          C76   1.411       .  A
C75         C394   1.406       .  A
C75          H80   1.082       .  S
C76         C397   1.407       .  A
C77          C78   1.411       .  A
C77        C1036   1.410   1_455  A
C77          H81   1.082       .  S
C78          C79   1.409       .  A
C79          H82   1.078       .  S
C83         C133   1.501       .  S
C83          C84   1.398       .  A
C83         C408   1.414       .  A
C84          C85   1.407       .  A
C84          H89   1.081       .  S
C85          C86   1.413       .  A
C86         C407   1.414       .  A
C86          H90   1.078       .  S
C87          C88   1.419       .  A
C87        C1046   1.409   1_455  A
C88        C1043   1.416   1_455  A
C88          H91   1.076       .  S
C92         C129   1.499       .  S
C92          C97   1.412       .  A
C92         C413   1.400       .  A
C93          C94   1.402       .  A
C93        C1052   1.394       .  A
C93          H98   1.080       .  S
C94        C1055   1.412   1_455  A
C95          C96   1.408       .  A
C95         C414   1.407       .  A
C95          H99   1.079       .  S
C96          C97   1.420       .  A
C97         H100   1.077       .  S
O101        C111   1.281       .  A
O101       Cu269   2.036       .  S
O102        C112   1.272       .  A
O102       Cu109   1.980   1_554  S
O103        C113   1.285       .  A
O103       Cu109   2.056       .  S
O104        C114   1.285       .  A
O104       Cu109   2.056   1_554  S
O105       C1074   1.273       .  A
O105       Cu110   1.991       .  S
O106       C1073   1.274       .  A
O106       Cu110   1.995   1_556  S
O107       C1072   1.282       .  A
O107       Cu110   2.029       .  S
O108       C1071   1.281       .  A
O108       Cu270   2.017       .  S
Cu109       O261   1.983       .  S
Cu109      Cu430   2.373       .  S
Cu110       O268   2.031   1_554  S
Cu110     Cu1069   2.373   1_455  S
C111        O428   1.275       .  A
C111        C127   1.469       .  S
C112        O427   1.283       .  A
C112        C128   1.468       .  S
C113        O426   1.273       .  A
C113        C461   1.486       .  S
C114        O425   1.272       .  A
C114        C134   1.480       .  S
O115       C1085   1.285   1_455  A
O115       Cu123   2.041       .  S
O116       C1086   1.282       .  A
O116       Cu123   2.038       .  S
O117       C1087   1.273       .  A
O117       Cu123   1.990       .  S
O118       C1088   1.273       .  A
O118       Cu123   1.995       .  S
O119        C128   1.281       .  A
O119       Cu124   2.018       .  S
O120        C127   1.279       .  A
O120       Cu124   2.023       .  S
O121        C126   1.278       .  A
O121       Cu124   2.014       .  S
O122        C125   1.277       .  A
O122       Cu124   2.014       .  S
Cu123     Cu1084   2.374   1_455  S
Cu124      Cu443   2.373       .  S
C125        O435   1.282       .  A
C125        C130   1.487       .  S
C126        O436   1.279       .  A
C126        C138   1.484       .  S
C127        O437   1.277       .  A
C128        O438   1.275       .  A
C129        C130   1.347       .  D
C129        H451   1.087       .  S
C130        H132   1.083       .  S
H131       C1089   1.089       .  S
C133        C134   1.343       .  D
C133        H295   1.087       .  S
C134        H456   1.081       .  S
H135        C293   1.086       .  S
H136       C1094   1.083       .  S
C137        C394   1.498       .  S
C137        C138   1.352       .  D
C137        H139   1.086       .  S
C138        H460   1.082       .  S
H140       C1098   1.082       .  S
C141       C1073   1.486       .  S
C141        C142   1.346   1_455  D
C141        H143   1.082       .  S
C142       H1264   1.086       .  S
H144        C622   1.087       .  S
C145        C146   1.343       .  D
C145        H147   1.084       .  S
C146        H148   1.087       .  S
C149        C150   1.353       .  D
C149        H151   1.081       .  S
C150        H152   1.086       .  S
C153        C154   1.354       .  D
C153        H315   1.088       .  S
C154        H156   1.084       .  S
H155        C313   1.088       .  S
C157        C158   1.348       .  D
C157        H159   1.082       .  S
C158        H320   1.087       .  S
H160        C318   1.088       .  S
O161        C171   1.276       .  A
O162        C172   1.274       .  A
O162       Cu169   1.994       .  S
O163       Cu169   2.044       .  S
O164        C174   1.282       .  A
O164       Cu169   2.040   1_545  S
O165       Cu170   2.014   1_554  S
O166        C173   1.277       .  A
O166       Cu170   2.011   1_565  S
O167        C172   1.281       .  A
O168        C171   1.280       .  A
O168       Cu170   2.016       .  S
C171        C188   1.470       .  S
C172        C187   1.467       .  S
C173        C317   1.484       .  S
C174        C314   1.488       .  S
O175        C185   1.275       .  A
O175       Cu183   2.008   1_545  S
O176        C186   1.277       .  A
O176       Cu183   2.009       .  S
O177        C187   1.281       .  A
O177       Cu183   2.024       .  S
O178        C188   1.281       .  A
O178       Cu183   2.026   1_545  S
O179        C188   1.275       .  A
O179       Cu184   2.001       .  S
O180        C187   1.274       .  A
O180       Cu184   1.997   1_565  S
O181        C186   1.282       .  A
O181       Cu184   2.036   1_565  S
O182        C185   1.283       .  A
O182       Cu184   2.039       .  S
Cu183      Cu184   2.373   1_565  S
C185        C305   1.486       .  S
C186        C309   1.486       .  S
C189        C313   1.504       .  S
C189        C190   1.410       .  A
C189        C194   1.407       .  A
C190        C191   1.415       .  A
C190        H195   1.081       .  S
C191        C247   1.510       .  S
C191        C192   1.408       .  A
C192        C193   1.409       .  A
C192        H196   1.080       .  S
C193        C245   1.504       .  S
C193        C194   1.410       .  A
C194        H197   1.075       .  S
C198        C306   1.499       .  S
C198        C199   1.399       .  A
C198        C203   1.414       .  A
C199        C200   1.404       .  A
C199        H204   1.084       .  S
C200        C254   1.496       .  S
C200        C201   1.409       .  A
C201        C202   1.405       .  A
C201        H205   1.080       .  S
C202        C256   1.509       .  S
C202        C203   1.420       .  A
C203        H206   1.078       .  S
C207        C318   1.500       .  S
C207        C208   1.412       .  A
C207        C212   1.401       .  A
C208        C209   1.416       .  A
C208        H213   1.076       .  S
C209        C210   1.410       .  A
C210        C211   1.411       .  A
C211        C212   1.406       .  A
C212        H215   1.083       .  S
C216        C310   1.501       .  S
C216        C217   1.410       .  A
C216        C221   1.407       .  A
C217        C218   1.414       .  A
C217        H222   1.082       .  S
C218        C236   1.505       .  S
C218        C219   1.407       .  A
C219        C220   1.405       .  A
C219        H223   1.078       .  S
C220        C238   1.499       .  S
C220        C221   1.411       .  A
C221        H224   1.078       .  S
C225        C302   1.496       .  S
C225       C1186   1.398       .  A
C225        C230   1.414   1_655  A
C226        C545   1.412       .  A
C226        C227   1.416       .  A
C226        H231   1.077       .  S
C227        C548   1.412       .  A
C228       C1187   1.414   1_455  A
C228        C229   1.412       .  A
C228        H232   1.079       .  S
C229        C230   1.416       .  A
C230        H233   1.077       .  S
C234       C1257   1.504       .  S
C234       C1195   1.408   1_455  A
C234        C239   1.408       .  A
C235        C554   1.404       .  A
C235        C236   1.410       .  A
C235        H240   1.082       .  S
C236        C557   1.406       .  A
C237       C1196   1.402   1_455  A
C237        C238   1.407       .  A
C237        H241   1.080       .  S
C238        C239   1.415       .  A
C239        H242   1.078       .  S
C243        C293   1.500       .  S
C243        C244   1.404       .  A
C243        C568   1.410       .  A
C244        C245   1.409       .  A
C244        H249   1.082       .  S
C245        C246   1.409       .  A
C246        C567   1.409       .  A
C246        H250   1.078       .  S
C247       C1206   1.407   1_455  A
C247        C248   1.415       .  A
C248       C1203   1.413   1_455  A
C248        H251   1.074       .  S
C252        C289   1.507       .  S
C252        C573   1.403       .  A
C252        C257   1.416       .  A
C253       C1212   1.399       .  A
C253        C254   1.402       .  A
C253        H258   1.081       .  S
C254       C1215   1.407       .  A
C255        C574   1.406       .  A
C255        C256   1.407       .  A
C255        H259   1.078       .  S
C256        C257   1.422       .  A
C257        H260   1.076       .  S
O261        C271   1.273       .  A
O262        C272   1.281       .  A
O262       Cu269   2.030       .  S
O263        C273   1.275       .  A
O263       Cu269   2.006       .  S
O264        C274   1.279       .  A
O264       Cu269   2.018       .  S
O265       C1234   1.274       .  A
O265       Cu270   1.989       .  S
O266       C1233   1.272       .  A
O266       Cu270   1.985       .  S
O267       C1232   1.279       .  A
O267       Cu270   2.010       .  S
O268       C1231   1.282       .  A
Cu269      Cu590   2.373       .  S
Cu270     Cu1229   2.375   1_455  S
C271        O588   1.282       .  A
C271        C287   1.470       .  S
C272        O587   1.275       .  A
C272        C288   1.469       .  S
C273        O586   1.282       .  A
C273        C621   1.483       .  S
C274        O585   1.280       .  A
C274        C294   1.487       .  S
O275       C1245   1.285   1_455  A
O275       Cu283   2.050       .  S
O276       C1246   1.283       .  A
O276       Cu283   2.046       .  S
O277       C1247   1.274       .  A
O277       Cu283   2.002       .  S
O278       C1248   1.274       .  A
O278       Cu283   1.993       .  S
O279        C288   1.277       .  A
O279       Cu284   2.014       .  S
O280        C287   1.279       .  A
O280       Cu284   2.004       .  S
O281        C286   1.281       .  A
O281       Cu284   2.033       .  S
O282        C285   1.279       .  A
O282       Cu284   2.028       .  S
Cu283     Cu1244   2.373   1_455  S
Cu284      Cu603   2.372       .  S
C285        O595   1.282       .  A
C285        C290   1.495       .  S
C286        O596   1.279       .  A
C286        C298   1.489       .  S
C287        O597   1.277       .  A
C288        O598   1.279       .  A
C289        C290   1.351       .  D
C289        H611   1.089       .  S
C290        H292   1.084       .  S
H291       C1249   1.087       .  S
C293        C294   1.351       .  D
C294        H616   1.082       .  S
H296       C1254   1.081       .  S
C297        C554   1.504       .  S
C297        C298   1.350       .  D
C297        H299   1.087       .  S
C298        H620   1.083       .  S
H300       C1258   1.084       .  S
C301       C1233   1.477       .  S
C301        C302   1.341   1_455  D
C301        H303   1.083       .  S
C302       H1104   1.088       .  S
H304        C462   1.087       .  S
C305        C306   1.346       .  D
C305        H307   1.083       .  S
C306        H308   1.088       .  S
C309        C310   1.355       .  D
C309        H311   1.082       .  S
C310        H312   1.087       .  S
C313        C314   1.356       .  D
C314        H316   1.083       .  S
C317        C318   1.347       .  D
C317        H319   1.083       .  S
O321        C331   1.275       .  A
O321       Cu489   1.997   1_545  S
O322        C332   1.277       .  A
O322       Cu329   2.006       .  S
O323        C493   1.283       .  A
O323       Cu329   2.043   1_556  S
O324        C334   1.283       .  A
O324       Cu329   2.047   1_545  S
O325        C494   1.277       .  A
O325       Cu330   2.011       .  S
O326        C333   1.275       .  A
O326       Cu330   2.003   1_565  S
O327        C332   1.278       .  A
O327       Cu490   2.007   1_565  S
O328        C331   1.280       .  A
O328       Cu330   2.024       .  S
Cu329       O481   2.007   1_554  S
Cu329      Cu490   2.372   1_565  S
Cu330       O487   2.022   1_545  S
Cu330      Cu489   2.374   1_545  S
C331        C348   1.468       .  S
C332        C347   1.465       .  S
C333        O483   1.282       .  A
C333        C477   1.481       .  S
C334        O485   1.279       .  A
C334        C474   1.496       .  S
O335        C345   1.275       .  A
O335       Cu343   2.003   1_545  S
O336        C346   1.278       .  A
O336       Cu343   2.011       .  S
O337        C347   1.278       .  A
O337       Cu343   2.011       .  S
O338        C348   1.279   1_565  A
O338       Cu343   2.009       .  S
O339        C348   1.277       .  A
O339       Cu344   2.011   1_545  S
O340        C347   1.276       .  A
O340       Cu344   2.002       .  S
O341        C346   1.279       .  A
O341       Cu344   2.024       .  S
O342        C345   1.281       .  A
O342       Cu344   2.019   1_545  S
Cu343      Cu344   2.375       .  S
C345        C465   1.476       .  S
C346        C469   1.484       .  S
C349        C473   1.510       .  S
C349        C350   1.409       .  A
C349        C354   1.409       .  A
C350        C351   1.417       .  A
C350        H355   1.082       .  S
C351        C407   1.517       .  S
C351        C352   1.415       .  A
C352        C353   1.411       .  A
C352        H356   1.079       .  S
C353        C405   1.512       .  S
C353        C354   1.417       .  A
C354        H357   1.076       .  S
C358        C466   1.487       .  S
C358        C359   1.400       .  A
C358        C363   1.411       .  A
C359        C360   1.404       .  A
C359        H364   1.079       .  S
C360        C414   1.500       .  S
C360        C361   1.405       .  A
C361        C362   1.411       .  A
C361        H365   1.080       .  S
C362        C416   1.505       .  S
C362        C363   1.411       .  A
C363        H366   1.081       .  S
C367        C478   1.496       .  S
C367        C368   1.412       .  A
C367        C372   1.400       .  A
C368        C369   1.413       .  A
C368        H373   1.078       .  S
C369        C549   1.499       .  S
C369        C370   1.405       .  A
C370        C371   1.402       .  A
C370        H534   1.080       .  S
C371        C547   1.494       .  S
C371        C372   1.406       .  A
C372        H375   1.082       .  S
H374        C530   1.082       .  S
C376        C470   1.497       .  S
C376        C377   1.403       .  A
C376        C381   1.406       .  A
C377        C378   1.410       .  A
C377        H382   1.080       .  S
C378        C396   1.504       .  S
C378        C379   1.407       .  A
C379        C380   1.411       .  A
C379        H383   1.079       .  S
C380        C398   1.501       .  S
C380        C381   1.413       .  A
C381        H384   1.077       .  S
C385        C462   1.503       .  S
C385        C390   1.415       .  A
C386        C705   1.416       .  A
C386        C387   1.414       .  A
C386        H391   1.078       .  S
C387        C531   1.505       .  S
C387        C708   1.409       .  A
C388        C389   1.409       .  A
C388        H392   1.081       .  S
C389        C529   1.510       .  S
C389        C390   1.417       .  A
C390        H393   1.079       .  S
C394        C399   1.408       .  A
C395        C714   1.411       .  A
C395        C396   1.413       .  A
C395        H400   1.078       .  S
C396        C717   1.409       .  A
C397        C398   1.409       .  A
C397        H401   1.080       .  S
C398        C399   1.411       .  A
C399        H402   1.078       .  S
C403        C453   1.498       .  S
C403        C404   1.417       .  A
C403        C728   1.395       .  A
C404        C405   1.421       .  A
C404        H409   1.079       .  S
C405        C406   1.411       .  A
C406        C727   1.406       .  A
C406        H410   1.081       .  S
C407        C408   1.416       .  A
C408        H411   1.074       .  S
C412        C449   1.498       .  S
C412        C733   1.410       .  A
C412        C417   1.396       .  A
C413        C414   1.406       .  A
C413        H418   1.082       .  S
C415        C734   1.419       .  A
C415        C416   1.410       .  A
C415        H419   1.078       .  S
C416        C417   1.405       .  A
C417        H420   1.083       .  S
O421        C431   1.273       .  A
O421       Cu589   1.983       .  S
O422        C432   1.285       .  A
O422       Cu429   2.058   1_554  S
O423        C433   1.272       .  A
O423       Cu429   1.984       .  S
O424        C434   1.270       .  A
O424       Cu429   1.977       .  S
O425       Cu430   1.979   1_554  S
O426       Cu430   1.991       .  S
O427       Cu430   2.039   1_554  S
O428       Cu590   1.990       .  S
Cu429       O581   2.050       .  S
Cu429      Cu750   2.371       .  S
Cu430       O588   2.039       .  S
C431        O748   1.283       .  A
C431        C447   1.472       .  S
C432        O747   1.272       .  A
C432        C448   1.474       .  S
C433        O746   1.286       .  A
C433        C781   1.484       .  S
C434        O745   1.287       .  A
C434        C454   1.483   1_556  S
O435       Cu443   2.029       .  S
O436       Cu443   2.023       .  S
O437       Cu443   1.999       .  S
O438       Cu443   2.006       .  S
O439        C448   1.277       .  A
O439       Cu444   2.024       .  S
O440        C447   1.280       .  A
O440       Cu444   2.016       .  S
O441        C446   1.279       .  A
O441       Cu444   2.023       .  S
O442        C445   1.282       .  A
O442       Cu444   2.028       .  S
Cu444      Cu763   2.373       .  S
C445        O755   1.277       .  A
C445        C450   1.485       .  S
C446        O756   1.279       .  A
C446        C458   1.486       .  S
C447        O757   1.276       .  A
C448        O758   1.280       .  A
C449        C450   1.346       .  D
C449        H771   1.089       .  S
C450        H452   1.085       .  S
C453        C454   1.340       .  D
C453        H615   1.087       .  S
C454        H776   1.084   1_554  S
H455        C613   1.087       .  S
C457        C714   1.498       .  S
C457        C458   1.351       .  D
C457        H459   1.086       .  S
C458        H780   1.081       .  S
C461        C462   1.345       .  D
C461        H463   1.082       .  S
H464        C942   1.086       .  S
C465        C466   1.343       .  D
C465        H467   1.085       .  S
C466        H468   1.088       .  S
C469        C470   1.351       .  D
C469        H471   1.081       .  S
C470        H472   1.086       .  S
C473        C474   1.358       .  D
C473        H635   1.088       .  S
C474        H476   1.084       .  S
H475        C633   1.088       .  S
C477        C478   1.345       .  D
C477        H479   1.082       .  S
C478        H640   1.087       .  S
H480        C638   1.088       .  S
O481        C491   1.276   1_565  A
O482        C492   1.274       .  A
O482       Cu489   1.996       .  S
O483       Cu489   2.029       .  S
O484        C494   1.282       .  A
O484       Cu489   2.035   1_545  S
O485       Cu490   2.027       .  S
O486        C493   1.278       .  A
O486       Cu490   2.020   1_566  S
O487        C492   1.281       .  A
O488        C491   1.279       .  A
O488       Cu490   2.008   1_556  S
C491        C508   1.467       .  S
C492        C507   1.467       .  S
C493        C637   1.492       .  S
C494        C634   1.486       .  S
O495        C505   1.276       .  A
O495       Cu503   2.008   1_545  S
O496        C506   1.278       .  A
O496       Cu503   2.018       .  S
O497        C507   1.281       .  A
O497       Cu503   2.021       .  S
O498        C508   1.280   1_565  A
O498       Cu503   2.023       .  S
O499        C508   1.275       .  A
O499       Cu504   1.997       .  S
O500        C507   1.274       .  A
O500       Cu504   1.997   1_565  S
O501        C506   1.282       .  A
O501       Cu504   2.037   1_565  S
O502        C505   1.282       .  A
O502       Cu504   2.030       .  S
Cu503      Cu504   2.373   1_565  S
C505        C625   1.484       .  S
C506        C629   1.491       .  S
C509        C633   1.503       .  S
C509        C510   1.409       .  A
C509        C514   1.407       .  A
C510        C511   1.415       .  A
C510        H515   1.080       .  S
C511        C567   1.507       .  S
C511        C512   1.406       .  A
C512        C513   1.407       .  A
C512        H516   1.080       .  S
C513        C565   1.501       .  S
C513        C514   1.411       .  A
C514        H517   1.074       .  S
C518        C626   1.496       .  S
C518        C519   1.403       .  A
C518        C523   1.415       .  A
C519        C520   1.405       .  A
C519        H524   1.082       .  S
C520        C574   1.501       .  S
C520        C521   1.404       .  A
C521        C522   1.410       .  A
C521        H525   1.080       .  S
C522        C576   1.505       .  S
C522        C523   1.413       .  A
C523        H526   1.078       .  S
C527        C638   1.506       .  S
C527        C528   1.413       .  A
C527        C532   1.402       .  A
C528        C529   1.420       .  A
C528        H533   1.078       .  S
C529        C530   1.412       .  A
C530        C531   1.410       .  A
C531        C532   1.410       .  A
C532        H535   1.083       .  S
C536        C630   1.504       .  S
C536        C537   1.405       .  A
C536        C541   1.406       .  A
C537        C538   1.413       .  A
C537        H542   1.082       .  S
C538        C556   1.511       .  S
C538        C539   1.412       .  A
C539        C540   1.415       .  A
C539        H543   1.080       .  S
C540        C558   1.510       .  S
C540        C541   1.416       .  A
C541        H544   1.077       .  S
C545        C622   1.496       .  S
C545        C550   1.400       .  A
C546        C865   1.402       .  A
C546        C547   1.407       .  A
C546        H551   1.082       .  S
C547        C868   1.402       .  A
C548        C549   1.403       .  A
C548        H552   1.080       .  S
C549        C550   1.406       .  A
C550        H553   1.082       .  S
C554        C559   1.412       .  A
C555        C874   1.413       .  A
C555        C556   1.417       .  A
C555        H560   1.078       .  S
C556        C877   1.413       .  A
C557        C558   1.413       .  A
C557        H561   1.080       .  S
C558        C559   1.416       .  A
C559        H562   1.078       .  S
C563        C613   1.505       .  S
C563        C564   1.403       .  A
C563        C888   1.413       .  A
C564        C565   1.411       .  A
C564        H569   1.083       .  S
C565        C566   1.408       .  A
C566        C887   1.407       .  A
C566        H570   1.079       .  S
C567        C568   1.416       .  A
C568        H571   1.077       .  S
C572        C609   1.499       .  S
C572        C893   1.412       .  A
C572        C577   1.396       .  A
C573        C574   1.409       .  A
C573        H578   1.084       .  S
C575        C894   1.421       .  A
C575        C576   1.410       .  A
C575        H579   1.079       .  S
C576        C577   1.405       .  A
C577        H580   1.083       .  S
O581        C591   1.284       .  A
O582        C592   1.273       .  A
O582       Cu589   1.979       .  S
O583        C593   1.285       .  A
O583       Cu589   2.058       .  S
O584        C594   1.284       .  A
O584       Cu589   2.053       .  S
O585       Cu590   2.026       .  S
O586       Cu590   2.032       .  S
O587       Cu590   1.994       .  S
Cu589      Cu910   2.370       .  S
C591        O908   1.272       .  A
C591        C607   1.471       .  S
C592        O907   1.283       .  A
C592        C608   1.473       .  S
C593        O906   1.274       .  A
C593        C941   1.490       .  S
C594        O905   1.275       .  A
C594        C614   1.485       .  S
O595       Cu603   2.040       .  S
O596       Cu603   2.024       .  S
O597       Cu603   2.020       .  S
O598       Cu603   2.011       .  S
O599        C608   1.279       .  A
O599       Cu604   2.004       .  S
O600        C607   1.276       .  A
O600       Cu604   2.014       .  S
O601        C606   1.280       .  A
O601       Cu604   2.032       .  S
O602        C605   1.283       .  A
O602       Cu604   2.039       .  S
Cu604      Cu923   2.371       .  S
C605        O915   1.276       .  A
C605        C610   1.488       .  S
C606        O916   1.279       .  A
C606        C618   1.491       .  S
C607        O917   1.281       .  A
C608        O918   1.278       .  A
C609        C610   1.345       .  D
C609        H931   1.088       .  S
C610        H612   1.084       .  S
C613        C614   1.348       .  D
C614        H936   1.082       .  S
C617        C874   1.503       .  S
C617        C618   1.353       .  D
C617        H619   1.087       .  S
C618        H940   1.083       .  S
C621        C622   1.345       .  D
C621        H623   1.083       .  S
H624        C782   1.086       .  S
C625        C626   1.346       .  D
C625        H627   1.082       .  S
C626        H628   1.087       .  S
C629        C630   1.355       .  D
C629        H631   1.083       .  S
C630        H632   1.087       .  S
C633        C634   1.355       .  D
C634        H636   1.082       .  S
C637        C638   1.350       .  D
C637        H639   1.084       .  S
O641        C651   1.275       .  A
O641       Cu809   2.003   1_545  S
O642        C652   1.279       .  A
O642       Cu649   2.025   1_554  S
O643        C813   1.281       .  A
O643       Cu649   2.022       .  S
O644        C654   1.277       .  A
O644       Cu649   2.012   1_545  S
O645        C814   1.281       .  A
O645       Cu650   2.026       .  S
O646        C653   1.278       .  A
O646       Cu650   2.018   1_565  S
O647        C652   1.278       .  A
O647       Cu810   2.007   1_564  S
O648        C651   1.279       .  A
O648       Cu650   2.014       .  S
Cu649       O801   2.016   1_565  S
Cu649      Cu810   2.374   1_565  S
Cu650       O807   2.013   1_545  S
Cu650      Cu809   2.374   1_545  S
C651        C668   1.466       .  S
C652        C667   1.473       .  S
C653        O803   1.280       .  A
C653        C797   1.483       .  S
C654        O805   1.280       .  A
C654        C794   1.480   1_556  S
O655        C665   1.280       .  A
O655       Cu663   2.026       .  S
O656        C666   1.277       .  A
O656       Cu663   2.017   1_565  S
O657        C667   1.280   1_545  A
O657       Cu663   2.028       .  S
O658        C668   1.280       .  A
O658       Cu663   2.027       .  S
O659        C668   1.275   1_565  A
O659       Cu664   1.993       .  S
O660        C667   1.277       .  A
O660       Cu664   2.005       .  S
O661        C666   1.283       .  A
O661       Cu664   2.037       .  S
O662        C665   1.279       .  A
O662       Cu664   2.026   1_545  S
Cu663      Cu664   2.372   1_545  S
C665        C785   1.488       .  S
C666        C789   1.490       .  S
C669        C793   1.494       .  S
C669        C670   1.403       .  A
C669        C674   1.411       .  A
C670        C671   1.406       .  A
C670        H675   1.084       .  S
C671        C727   1.497       .  S
C671        C672   1.406       .  A
C672        C673   1.404       .  A
C672        H676   1.080       .  S
C673        C725   1.498       .  S
C673        C674   1.411       .  A
C674        H677   1.078       .  S
C678        C786   1.501       .  S
C678        C679   1.408       .  A
C678        C683   1.400       .  A
C679        C680   1.419       .  A
C679        H684   1.079       .  S
C680        C734   1.517       .  S
C680        C681   1.419       .  A
C681        C682   1.411       .  A
C681        H685   1.078       .  S
C682        C736   1.511       .  S
C682        C683   1.411       .  A
C683        H686   1.083       .  S
C687        C798   1.497       .  S
C687        C688   1.410       .  A
C687        C692   1.403       .  A
C688        C689   1.415       .  A
C688        H693   1.078       .  S
C689        C869   1.504       .  S
C689        C690   1.402       .  A
C690        C691   1.410       .  A
C690        H854   1.079       .  S
C691        C867   1.499       .  S
C691        C692   1.407       .  A
C692        H695   1.083       .  S
H694        C850   1.079       .  S
C696        C790   1.502       .  S
C696        C697   1.415       .  A
C696        C701   1.403       .  A
C697        C698   1.418       .  A
C697        H702   1.081       .  S
C698        C716   1.509       .  S
C698        C699   1.413       .  A
C699        C700   1.406       .  A
C699        H703   1.080       .  S
C700        C718   1.506       .  S
C700        C701   1.407       .  A
C701        H704   1.083       .  S
C705        C782   1.504       .  S
C705        C710   1.402       .  A
C706       C1025   1.408       .  A
C706        C707   1.415       .  A
C706        H711   1.077       .  S
C707        C851   1.501       .  S
C707       C1028   1.409       .  A
C708        C709   1.404       .  A
C708        H712   1.081       .  S
C709        C849   1.499       .  S
C709        C710   1.410       .  A
C710        H713   1.082       .  S
C714        C719   1.408       .  A
C715       C1034   1.403       .  A
C715        C716   1.411       .  A
C715        H720   1.082       .  S
C716       C1037   1.410       .  A
C717        C718   1.405       .  A
C717        H721   1.079       .  S
C718        C719   1.408       .  A
C719        H722   1.080       .  S
C723        C773   1.506       .  S
C723        C724   1.404       .  A
C723       C1048   1.417       .  A
C724        C725   1.408       .  A
C724        H729   1.082       .  S
C725        C726   1.402       .  A
C726       C1047   1.409       .  A
C726        H730   1.080       .  S
C727        C728   1.404       .  A
C728        H731   1.083       .  S
C732        C769   1.488       .  S
C732       C1053   1.400       .  A
C732        C737   1.414       .  A
C733        C734   1.420       .  A
C733        H738   1.076       .  S
C735       C1054   1.407       .  A
C735        C736   1.410       .  A
C735        H739   1.078       .  S
C736        C737   1.416       .  A
C737        H740   1.080       .  S
O741        C751   1.273       .  A
O741       Cu909   1.982       .  S
O742        C752   1.280       .  A
O742       Cu749   2.025   1_554  S
O743        C753   1.279       .  A
O743       Cu749   2.026       .  S
O744        C754   1.283       .  A
O744       Cu749   2.045   1_554  S
O745       Cu750   2.066       .  S
O746       Cu750   2.061       .  S
O747       Cu750   1.975   1_554  S
O748       Cu910   2.046       .  S
Cu749       O901   2.027       .  S
Cu749     Cu1070   2.372       .  S
Cu750       O908   1.978       .  S
C751       O1068   1.283       .  A
C751        C767   1.473       .  S
C752       O1067   1.277       .  A
C752        C768   1.472       .  S
C753       O1066   1.279       .  A
C753       C1101   1.487       .  S
C754       O1065   1.278   1_554  A
C754        C774   1.493       .  S
O755       Cu763   2.013       .  S
O756       Cu763   2.015       .  S
O757       Cu763   2.015       .  S
O758       Cu763   2.012       .  S
O759        C768   1.278       .  A
O759       Cu764   2.015       .  S
O760        C767   1.280       .  A
O760       Cu764   2.006       .  S
O761        C766   1.279       .  A
O761       Cu764   2.014       .  S
O762        C765   1.274       .  A
O762       Cu764   2.000       .  S
Cu764     Cu1083   2.373       .  S
C765       O1075   1.282       .  A
C765        C770   1.479       .  S
C766       O1076   1.280       .  A
C766        C778   1.488       .  S
C767       O1077   1.277       .  A
C768       O1078   1.279       .  A
C769        C770   1.342       .  D
C769       H1091   1.087       .  S
C770        H772   1.086       .  S
C773        C774   1.349       .  D
C773        H935   1.088       .  S
C774       H1096   1.084       .  S
H775        C933   1.086       .  S
C777       C1034   1.499       .  S
C777        C778   1.352       .  D
C777        H779   1.088       .  S
C778       H1100   1.084       .  S
C781        C782   1.345       .  D
C781        H783   1.081       .  S
H784       C1262   1.087       .  S
C785        C786   1.351       .  D
C785        H787   1.084       .  S
C786        H788   1.087       .  S
C789        C790   1.348       .  D
C789        H791   1.083       .  S
C790        H792   1.087       .  S
C793        C794   1.347       .  D
C793        H955   1.089       .  S
C794        H796   1.084       .  S
H795        C953   1.089       .  S
C797        C798   1.350       .  D
C797        H799   1.084       .  S
C798        H960   1.088       .  S
H800        C958   1.090       .  S
O801        C811   1.279       .  A
O802        C812   1.277       .  A
O802       Cu809   1.993       .  S
O803       Cu809   2.018       .  S
O804        C814   1.278       .  A
O804       Cu809   2.020   1_545  S
O805       Cu810   2.019       .  S
O806        C813   1.277       .  A
O806       Cu810   2.015   1_565  S
O807        C812   1.277       .  A
O808        C811   1.276       .  A
O808       Cu810   2.005       .  S
C811        C828   1.468       .  S
C812        C827   1.462       .  S
C813        C957   1.484       .  S
C814        C954   1.486       .  S
O815        C825   1.286       .  A
O815       Cu823   2.067   1_545  S
O816        C826   1.285       .  A
O816       Cu823   2.061       .  S
O817        C827   1.275       .  A
O817       Cu823   1.985       .  S
O818        C828   1.275       .  A
O818       Cu823   1.996   1_545  S
O819        C828   1.280       .  A
O819       Cu824   2.022   1_545  S
O820        C827   1.279       .  A
O820       Cu824   2.020       .  S
O821        C826   1.276       .  A
O821       Cu824   2.008       .  S
O822        C825   1.276       .  A
O822       Cu824   2.004   1_545  S
Cu823      Cu824   2.372       .  S
C825        C945   1.493       .  S
C826        C949   1.493       .  S
C829        C953   1.500       .  S
C829        C830   1.406       .  A
C829        C834   1.409       .  A
C830        C831   1.411       .  A
C830        H835   1.082       .  S
C831        C887   1.506       .  S
C831        C832   1.407       .  A
C832        C833   1.409       .  A
C832        H836   1.080       .  S
C833        C885   1.501       .  S
C833        C834   1.412       .  A
C834        H837   1.077       .  S
C838        C946   1.513       .  S
C838        C839   1.414       .  A
C838        C843   1.405       .  A
C839        C840   1.419       .  A
C839        H844   1.075       .  S
C840        C894   1.520       .  S
C840        C841   1.417       .  A
C841        C842   1.412       .  A
C841        H845   1.080       .  S
C842        C896   1.513       .  S
C842        C843   1.414       .  A
C843        H846   1.080       .  S
C847        C958   1.498       .  S
C847        C848   1.411       .  A
C847        C852   1.403       .  A
C848        C849   1.414       .  A
C848        H853   1.077       .  S
C849        C850   1.406       .  A
C850        C851   1.404       .  A
C851        C852   1.409       .  A
C852        H855   1.083       .  S
C856        C950   1.510       .  S
C856        C857   1.404       .  A
C856        C861   1.413       .  A
C857        C858   1.414       .  A
C857        H862   1.079       .  S
C858        C876   1.513       .  S
C858        C859   1.413       .  A
C859        C860   1.412       .  A
C859        H863   1.081       .  S
C860        C878   1.512       .  S
C860        C861   1.416       .  A
C861        H864   1.076       .  S
C865        C942   1.505       .  S
C865        C870   1.416       .  A
C866       C1185   1.395       .  A
C866        C867   1.404       .  A
C866        H871   1.081       .  S
C867       C1188   1.411       .  A
C868        C869   1.402       .  A
C868        H872   1.080       .  S
C869        C870   1.419       .  A
C870        H873   1.076       .  S
C874        C879   1.409       .  A
C875       C1194   1.412       .  A
C875        C876   1.416       .  A
C875        H880   1.076       .  S
C876       C1197   1.414       .  A
C877        C878   1.409       .  A
C877        H881   1.081       .  S
C878        C879   1.411       .  A
C879        H882   1.082       .  S
C883        C933   1.507       .  S
C883        C884   1.402       .  A
C883       C1208   1.417       .  A
C884        C885   1.410       .  A
C884        H889   1.081       .  S
C885        C886   1.408       .  A
C886       C1207   1.407       .  A
C886        H890   1.080       .  S
C887        C888   1.414       .  A
C888        H891   1.076       .  S
C892        C929   1.496       .  S
C892       C1213   1.398       .  A
C892        C897   1.417       .  A
C893        C894   1.422       .  A
C893        H898   1.078       .  S
C895       C1214   1.409       .  A
C895        C896   1.409       .  A
C895        H899   1.081       .  S
C896        C897   1.416       .  A
C897        H900   1.078       .  S
O901        C911   1.278       .  A
O902        C912   1.270       .  A
O902       Cu909   1.981       .  S
O903        C913   1.287       .  A
O903       Cu909   2.059       .  S
O904        C914   1.287       .  A
O904       Cu909   2.068       .  S
O905       Cu910   1.999       .  S
O906       Cu910   1.999       .  S
O907       Cu910   2.050       .  S
Cu909     Cu1230   2.373       .  S
C911       O1228   1.279       .  A
C911        C927   1.472       .  S
C912       O1227   1.285       .  A
C912        C928   1.468       .  S
C913       O1226   1.270       .  A
C913       C1261   1.481       .  S
C914       O1225   1.272       .  A
C914        C934   1.486       .  S
O915       Cu923   2.013       .  S
O916       Cu923   2.018       .  S
O917       Cu923   2.014       .  S
O918       Cu923   2.028       .  S
O919        C928   1.284       .  A
O919       Cu924   2.035       .  S
O920        C927   1.283       .  A
O920       Cu924   2.048       .  S
O921        C926   1.272       .  A
O921       Cu924   1.984       .  S
O922        C925   1.271       .  A
O922       Cu924   1.978       .  S
Cu924     Cu1243   2.374       .  S
C925       O1235   1.285       .  A
C925        C930   1.479       .  S
C926       O1236   1.285       .  A
C926        C938   1.480       .  S
C927       O1237   1.273       .  A
C928       O1238   1.271       .  A
C929        C930   1.340       .  D
C929       H1251   1.086       .  S
C930        H932   1.082       .  S
C933        C934   1.345       .  D
C934       H1256   1.081       .  S
C937       C1194   1.497       .  S
C937        C938   1.342       .  D
C937        H939   1.089       .  S
C938       H1260   1.085       .  S
C941        C942   1.347       .  D
C941        H943   1.081       .  S
H944       C1102   1.087       .  S
C945        C946   1.352       .  D
C945        H947   1.082       .  S
C946        H948   1.087       .  S
C949        C950   1.350       .  D
C949        H951   1.083       .  S
C950        H952   1.087       .  S
C953        C954   1.351       .  D
C954        H956   1.085       .  S
C957        C958   1.348       .  D
C957        H959   1.086       .  S
O961        C971   1.274       .  A
O961      Cu1129   1.995   1_545  S
O962        C972   1.275       .  A
O962       Cu969   2.001   1_554  S
O963       C1133   1.282       .  A
O963       Cu969   2.031       .  S
O964        C974   1.281       .  A
O964       Cu969   2.032   1_544  S
O965       C1134   1.277       .  A
O965       Cu970   2.014       .  S
O966        C973   1.276       .  A
O966       Cu970   2.010   1_565  S
O967        C972   1.280   1_545  A
O967      Cu1130   2.019   1_554  S
O968        C971   1.280       .  A
O968       Cu970   2.023       .  S
Cu969      O1121   2.001   1_565  S
Cu969     Cu1130   2.373   1_565  S
Cu970      O1127   2.019       .  S
Cu970     Cu1129   2.373   1_545  S
C971        C988   1.467       .  S
C972        C987   1.469       .  S
C973       O1123   1.284       .  A
C973       C1117   1.488       .  S
C974       O1125   1.278   1_554  A
C974       C1114   1.486       .  S
O975        C985   1.276       .  A
O975       Cu983   2.012   1_545  S
O976        C986   1.278       .  A
O976       Cu983   2.009       .  S
O977        C987   1.280       .  A
O977       Cu983   2.017       .  S
O978        C988   1.279       .  A
O978       Cu983   2.011   1_545  S
O979        C988   1.276       .  A
O979       Cu984   2.006       .  S
O980        C987   1.276   1_545  A
O980       Cu984   2.006       .  S
O981        C986   1.280       .  A
O981       Cu984   2.029   1_565  S
O982        C985   1.283       .  A
O982       Cu984   2.037       .  S
Cu983      Cu984   2.373   1_565  S
C985       C1105   1.488       .  S
C986       C1109   1.485       .  S
C989       C1113   1.500       .  S
C989        C990   1.406       .  A
C989        C994   1.405       .  A
C990        C991   1.413       .  A
C990        H995   1.083       .  S
C991       C1047   1.507       .  S
C991        C992   1.407       .  A
C992        C993   1.414       .  A
C992        H996   1.079       .  S
C993       C1045   1.502       .  S
C993        C994   1.411       .  A
C994        H997   1.077       .  S
C998       C1106   1.501       .  S
C998        C999   1.399       .  A
C998       C1003   1.414       .  A
C999       C1000   1.405       .  A
C999       H1004   1.081       .  S
C1000      C1054   1.499       .  S
C1000      C1001   1.409       .  A
C1001      C1002   1.411       .  A
C1001      H1005   1.079       .  S
C1002      C1056   1.514       .  S
C1002      C1003   1.422       .  A
C1003      H1006   1.077       .  S
C1007      C1118   1.502       .  S
C1007      C1008   1.414       .  A
C1007      C1012   1.400       .  A
C1008      C1009   1.418       .  A
C1008      H1013   1.078       .  S
C1009      C1189   1.512       .  S
C1009      C1010   1.411       .  A
C1010      C1011   1.413       .  A
C1010      H1174   1.080       .  S
C1011      C1187   1.503       .  S
C1011      C1012   1.406       .  A
C1012      H1015   1.082       .  S
H1014      C1170   1.079       .  S
C1016      C1110   1.499       .  S
C1016      C1017   1.406       .  A
C1016      C1021   1.409       .  A
C1017      C1018   1.410       .  A
C1017      H1022   1.082       .  S
C1018      C1036   1.507       .  S
C1018      C1019   1.410       .  A
C1019      C1020   1.411       .  A
C1019      H1023   1.083       .  S
C1020      C1038   1.503       .  S
C1020      C1021   1.411       .  A
C1021      H1024   1.076       .  S
C1025      C1102   1.499       .  S
C1025      C1030   1.404       .  A
C1026      C1027   1.409       .  A
C1026      H1031   1.080       .  S
C1027      C1171   1.502       .  S
C1028      C1029   1.405       .  A
C1028      H1032   1.078       .  S
C1029      C1169   1.506       .  S
C1029      C1030   1.411       .  A
C1030      H1033   1.081       .  S
C1034      C1039   1.406       .  A
C1035      C1036   1.411       .  A
C1035      H1040   1.082       .  S
C1037      C1038   1.416       .  A
C1037      H1041   1.083       .  S
C1038      C1039   1.414       .  A
C1039      H1042   1.078       .  S
C1043      C1093   1.504       .  S
C1043      C1044   1.401       .  A
C1044      C1045   1.407       .  A
C1044      H1049   1.082       .  S
C1045      C1046   1.411       .  A
C1046      H1050   1.079       .  S
C1047      C1048   1.420       .  A
C1048      H1051   1.079       .  S
C1052      C1089   1.492       .  S
C1052      C1057   1.412   1_455  A
C1053      C1054   1.402       .  A
C1053      H1058   1.082       .  S
C1055      C1056   1.411       .  A
C1055      H1059   1.076       .  S
C1056      C1057   1.420       .  A
C1057      H1060   1.080       .  S
O1061      C1071   1.274   1_655  A
O1061     Cu1229   2.000       .  S
O1062      C1072   1.273   1_655  A
O1062     Cu1069   1.996       .  S
O1063      C1073   1.285   1_655  A
O1063     Cu1069   2.057   1_556  S
O1064      C1074   1.286   1_655  A
O1064     Cu1069   2.060       .  S
O1065     Cu1070   2.019       .  S
O1066     Cu1070   2.017       .  S
O1067     Cu1070   2.009   1_554  S
O1068     Cu1230   2.047       .  S
Cu1069     O1221   1.989   1_554  S
Cu1070     O1228   2.001       .  S
C1071      C1087   1.467       .  S
C1072      C1088   1.470       .  S
C1074      C1094   1.486       .  S
O1075     Cu1083   2.029       .  S
O1076     Cu1083   2.031       .  S
O1077     Cu1083   2.027       .  S
O1078     Cu1083   2.017       .  S
O1079      C1088   1.283   1_655  A
O1079     Cu1084   2.031       .  S
O1080      C1087   1.282   1_655  A
O1080     Cu1084   2.027       .  S
O1081      C1086   1.275   1_655  A
O1081     Cu1084   1.997       .  S
O1082      C1085   1.272       .  A
O1082     Cu1084   1.991       .  S
C1085      C1090   1.480       .  S
C1086      C1098   1.484       .  S
C1089      C1090   1.339   1_455  D
C1090      H1092   1.087       .  S
C1093      C1094   1.345   1_655  D
C1093      H1255   1.088       .  S
H1095      C1253   1.086       .  S
C1097      C1098   1.355   1_655  D
C1097      H1099   1.086       .  S
C1101      C1102   1.351       .  D
C1101      H1103   1.082       .  S
C1105      C1106   1.347       .  D
C1105      H1107   1.083       .  S
C1106      H1108   1.087       .  S
C1109      C1110   1.352       .  D
C1109      H1111   1.081       .  S
C1110      H1112   1.086       .  S
C1113      C1114   1.354       .  D
C1113      H1275   1.089   1_554  S
C1114      H1116   1.085       .  S
H1115      C1273   1.088       .  S
C1117      C1118   1.346       .  D
C1117      H1119   1.084       .  S
C1118      H1280   1.088       .  S
H1120      C1278   1.088       .  S
O1121      C1131   1.275       .  A
O1122      C1132   1.274       .  A
O1122     Cu1129   1.994       .  S
O1123     Cu1129   2.048       .  S
O1124      C1134   1.284       .  A
O1124     Cu1129   2.049   1_545  S
O1125     Cu1130   2.010       .  S
O1126      C1133   1.277       .  A
O1126     Cu1130   2.016   1_565  S
O1127      C1132   1.281   1_545  A
O1128      C1131   1.280       .  A
O1128     Cu1130   2.013       .  S
C1131      C1148   1.464       .  S
C1132      C1147   1.465       .  S
C1133      C1277   1.487       .  S
C1134      C1274   1.493       .  S
O1135      C1145   1.277       .  A
O1135     Cu1143   2.020       .  S
O1136      C1146   1.278       .  A
O1136     Cu1143   2.017   1_565  S
O1137      C1147   1.281       .  A
O1137     Cu1143   2.022   1_565  S
O1138      C1148   1.280       .  A
O1138     Cu1143   2.019       .  S
O1139      C1148   1.274       .  A
O1139     Cu1144   1.989       .  S
O1140      C1147   1.274   1_545  A
O1140     Cu1144   1.992       .  S
O1141      C1146   1.282       .  A
O1141     Cu1144   2.038   1_565  S
O1142      C1145   1.283       .  A
O1142     Cu1144   2.041       .  S
Cu1143    Cu1144   2.373       .  S
C1145      C1265   1.492       .  S
C1146      C1269   1.490       .  S
C1149      C1273   1.509       .  S
C1149      C1150   1.411       .  A
C1149      C1154   1.407       .  A
C1150      C1151   1.417       .  A
C1150      H1155   1.082       .  S
C1151      C1207   1.510       .  S
C1151      C1152   1.407       .  A
C1152      C1153   1.410       .  A
C1152      H1156   1.080       .  S
C1153      C1205   1.503       .  S
C1153      C1154   1.413       .  A
C1154      H1157   1.073       .  S
C1158      C1266   1.504       .  S
C1158      C1159   1.400       .  A
C1158      C1163   1.413       .  A
C1159      C1160   1.406       .  A
C1159      H1164   1.083       .  S
C1160      C1214   1.499       .  S
C1160      C1161   1.411       .  A
C1161      C1162   1.407       .  A
C1161      H1165   1.080       .  S
C1162      C1216   1.508       .  S
C1162      C1163   1.421       .  A
C1163      H1166   1.079       .  S
C1167      C1278   1.499       .  S
C1167      C1168   1.413       .  A
C1167      C1172   1.404       .  A
C1168      C1169   1.417       .  A
C1168      H1173   1.075       .  S
C1169      C1170   1.407       .  A
C1170      C1171   1.406       .  A
C1171      C1172   1.406       .  A
C1172      H1175   1.081       .  S
C1176      C1270   1.503       .  S
C1176      C1177   1.409       .  A
C1176      C1181   1.412       .  A
C1177      C1178   1.411       .  A
C1177      H1182   1.082       .  S
C1178      C1196   1.501       .  S
C1178      C1179   1.400       .  A
C1179      C1180   1.406       .  A
C1179      H1183   1.080       .  S
C1180      C1198   1.500       .  S
C1180      C1181   1.414       .  A
C1181      H1184   1.077       .  S
C1185      C1262   1.498       .  S
C1185      C1190   1.415       .  A
C1186      C1187   1.404       .  A
C1186      H1191   1.081       .  S
C1188      C1189   1.412       .  A
C1188      H1192   1.080       .  S
C1189      C1190   1.419       .  A
C1190      H1193   1.078       .  S
C1194      C1199   1.396       .  A
C1195      C1196   1.413       .  A
C1195      H1200   1.081       .  S
C1197      C1198   1.407       .  A
C1197      H1201   1.080       .  S
C1198      C1199   1.408       .  A
C1199      H1202   1.084       .  S
C1203      C1253   1.504       .  S
C1203      C1204   1.403       .  A
C1204      C1205   1.410       .  A
C1204      H1209   1.081       .  S
C1205      C1206   1.410       .  A
C1206      H1210   1.080       .  S
C1207      C1208   1.417       .  A
C1208      H1211   1.078       .  S
C1212      C1249   1.502       .  S
C1212      C1217   1.417   1_455  A
C1213      C1214   1.402       .  A
C1213      H1218   1.083       .  S
C1215      C1216   1.407   1_455  A
C1215      H1219   1.081       .  S
C1216      C1217   1.423       .  A
C1217      H1220   1.081       .  S
O1221      C1231   1.273   1_655  A
O1222      C1232   1.275   1_655  A
O1222     Cu1229   1.995       .  S
O1223      C1233   1.284   1_655  A
O1223     Cu1229   2.041       .  S
O1224      C1234   1.284   1_655  A
O1224     Cu1229   2.052       .  S
O1225     Cu1230   1.982       .  S
O1226     Cu1230   1.974       .  S
O1227     Cu1230   2.040       .  S
C1231      C1247   1.468       .  S
C1232      C1248   1.462       .  S
C1234      C1254   1.483       .  S
O1235     Cu1243   2.050       .  S
O1236     Cu1243   2.053       .  S
O1237     Cu1243   1.978       .  S
O1238     Cu1243   1.984       .  S
O1239      C1248   1.280   1_655  A
O1239     Cu1244   2.015       .  S
O1240      C1247   1.281   1_655  A
O1240     Cu1244   2.018       .  S
O1241      C1246   1.277   1_655  A
O1241     Cu1244   2.011       .  S
O1242      C1245   1.275       .  A
O1242     Cu1244   2.009       .  S
C1245      C1250   1.492       .  S
C1246      C1258   1.492       .  S
C1249      C1250   1.344   1_455  D
C1250      H1252   1.084       .  S
C1253      C1254   1.347   1_655  D
C1257      C1258   1.356       .  D
C1257      H1259   1.088   1_455  S
C1261      C1262   1.339       .  D
C1261      H1263   1.082       .  S
C1265      C1266   1.348       .  D
C1265      H1267   1.083       .  S
C1266      H1268   1.087       .  S
C1269      C1270   1.354       .  D
C1269      H1271   1.083       .  S
C1270      H1272   1.088       .  S
C1273      C1274   1.359       .  D
C1274      H1276   1.082       .  S
C1277      C1278   1.348       .  D
C1277      H1279   1.083       .  S
