geometry optimzed in LAMMPS
_audit_creation_date              2020-11-30 
_audit_creation_method            'lammps2cif' 
_symmetry_space_group_name_H-M    'P1' 
_symmetry_Int_Tables_number       1 
_symmetry_cell_setting            triclinic 
loop_ 
_symmetry_equiv_pos_as_xyz 
  x,y,z 
_cell_length_a                    30.05632630100226 
_cell_length_b                    29.88423861147881 
_cell_length_c                    32.583920105812766 
_cell_angle_alpha                 90.18217203579678 
_cell_angle_beta                  90.18672659150097 
_cell_angle_gamma                 120.63154057053363 
loop_ 
_atom_site_label 
_atom_site_type_symbol 
_atom_site_fract_x 
_atom_site_fract_y 
_atom_site_fract_z 
_atom_site_charge 
C1          C  0.52503461  0.05066594  0.09976179     0.03550
C2          C  0.52381172  0.04875361  0.14277298    -0.12600
C3          C  0.50148278  0.00069988  0.16381985     0.01050
C4          C  0.48083835  0.95473750  0.13974762    -0.11130
C5          C  0.48048694  0.95656684  0.09679225     0.03540
C6          C  0.50422448  0.00455852  0.07704315    -0.10550
H7          H  0.53955647  0.08527678  0.15897557     0.09130
H8          H  0.46443386  0.91688148  0.15345150     0.06660
H9          H  0.50532965  0.00597724  0.04377961     0.06510
C10         C  0.45929796  0.94981365  0.27333281     0.03550
C11         C  0.46448164  0.95135580  0.23062073    -0.12600
C12         C  0.49763334  0.99847770  0.21012516     0.01050
C13         C  0.52654872  0.04358960  0.23464069    -0.11130
C14         C  0.51942758  0.04286409  0.27737057     0.03540
C15         C  0.48456647  0.99575354  0.29622268    -0.10550
H16         H  0.44191687  0.91514732  0.21435577     0.09130
H17         H  0.55551447  0.07970572  0.22122143     0.06660
H18         H  0.47831698  0.99423492  0.32904164     0.06510
Fe19       Fe  0.70225816  0.29935848  0.43936998     1.65780
Fe20       Fe  0.69906145  0.41095998  0.43534629     1.73250
Fe21       Fe  0.58703917  0.29386347  0.43291022     1.54420
O22         O  0.58801024  0.25196070  0.38280564    -0.81260
O23         O  0.64567226  0.41358938  0.47439301    -0.79560
O24         O  0.65216776  0.23909217  0.40079856    -0.83760
O25         O  0.66195628  0.25800472  0.48990049    -0.78620
O26         O  0.58058747  0.34458218  0.39304348    -0.80390
O27         O  0.74327494  0.41874309  0.48608969    -0.83140
C28         C  0.61339180  0.22975775  0.49386716     0.97630
C29         C  0.61273531  0.22818594  0.37900229     1.05070
O30         O  0.66281922  0.33491017  0.43590599    -1.12120
O31         O  0.75660952  0.41696770  0.39628622    -0.74550
O32         O  0.74583636  0.33797877  0.38914554    -0.78040
O33         O  0.58176554  0.23674438  0.47269346    -0.78730
C34         C  0.76824175  0.38572730  0.37955345     0.96530
O35         O  0.75860296  0.35393043  0.47833499    -0.76690
O36         O  0.65957608  0.41270227  0.38449081    -0.81880
C37         C  0.60337696  0.38063318  0.49143225     0.99150
C38         C  0.61188538  0.38707905  0.37558644     1.05070
O39         O  0.57989023  0.33254246  0.48248110    -0.77520
C40         C  0.76835873  0.39654051  0.49481967     1.03370
C41         C  0.51493981  0.47191012  0.09546513     0.03550
C42         C  0.51651663  0.47291133  0.13851588    -0.12600
C43         C  0.49817639  0.50069534  0.16132200     0.01050
C44         C  0.47813612  0.52716546  0.13897452    -0.11130
C45         C  0.47315692  0.52288778  0.09620024     0.03540
C46         C  0.49187514  0.49561794  0.07453153    -0.10550
H47         H  0.53195554  0.45146701  0.15325729     0.09130
H48         H  0.46579842  0.55119854  0.15395015     0.06660
H49         H  0.48944549  0.49376424  0.04129347     0.06510
C50         C  0.52953491  0.48568588  0.27321258     0.03550
C51         C  0.52925646  0.48565774  0.23013606    -0.12600
C52         C  0.49970393  0.50208764  0.20770235     0.01050
C53         C  0.47122980  0.51959100  0.23035761    -0.11130
C54         C  0.47444776  0.52336566  0.27329141     0.03540
C55         C  0.50245455  0.50497739  0.29441655    -0.10550
H56         H  0.55278369  0.47301724  0.21497728     0.09130
H57         H  0.44591364  0.53025990  0.21549888     0.06660
H58         H  0.50325317  0.50573132  0.32768103     0.06510
Fe59       Fe  0.29077090  0.70162497  0.43987657     1.65780
Fe60       Fe  0.29190129  0.58806730  0.43455379     1.73250
Fe61       Fe  0.40614784  0.70495647  0.43330129     1.54410
O62         O  0.40751159  0.75503332  0.38916351    -0.81260
O63         O  0.33794783  0.58484481  0.48047295    -0.79560
O64         O  0.33215084  0.75197373  0.39291669    -0.83760
O65         O  0.33918233  0.75363497  0.48349112    -0.78620
O66         O  0.41064480  0.65978885  0.38685574    -0.80390
O67         O  0.23890104  0.57961576  0.47826446    -0.83140
C68         C  0.38560506  0.77173705  0.49494318     0.97630
C69         C  0.37654481  0.76941774  0.37711592     1.05070
O70         O  0.32967275  0.66488388  0.43590262    -1.12120
O71         O  0.24241445  0.58348624  0.38800274    -0.74550
O72         O  0.23667871  0.65441526  0.39703585    -0.78040
O73         O  0.41424947  0.75644555  0.47941579    -0.78730
C74         C  0.22279931  0.61131093  0.37946855     0.96530
O75         O  0.24386443  0.65584112  0.48695027    -0.76690
O76         O  0.33811044  0.58304676  0.39097608    -0.81880
C77         C  0.38477609  0.61416813  0.49182863     0.99150
C78         C  0.38269433  0.61238364  0.37648321     1.05070
O79         O  0.41327900  0.65933432  0.47720691    -0.77520
C80         C  0.22419397  0.60800943  0.49525846     1.03370
C81         C  0.04362054  0.52053421  0.09895428     0.03550
C82         C  0.99738375  0.50311895  0.07715945    -0.12600
C83         C  0.95050473  0.48412712  0.09776217     0.01050
C84         C  0.95033618  0.48534234  0.14075157    -0.11130
C85         C  0.99587074  0.50040928  0.16378319     0.03540
C86         C  0.04231904  0.51695577  0.14194049    -0.10550
H87         H  0.99780060  0.50398805  0.04389730     0.09130
H88         H  0.91403028  0.47406602  0.15545174     0.06660
H89         H  0.07790363  0.52694364  0.15766909     0.06510
C90         C  0.03992628  0.52091209  0.27662799     0.03550
C91         C  0.99265069  0.48964618  0.29638986    -0.12600
C92         C  0.94653075  0.46519261  0.27403887     0.01050
C93         C  0.94758879  0.46786670  0.23119954    -0.11130
C94         C  0.99467044  0.49780152  0.20999141     0.03540
C95         C  0.04051231  0.52549427  0.23364917    -0.10550
H96         H  0.99134002  0.48556096  0.32946891     0.09130
H97         H  0.91111357  0.44592167  0.21524780     0.06660
H98         H  0.07696994  0.55176276  0.21926555     0.06510
C99         C  0.13632141  0.59525805  0.36228651    -0.11850
C100        C  0.17916102  0.59172508  0.35015474     0.05150
C101        C  0.17800353  0.56864105  0.31186945    -0.07140
C102        C  0.13220617  0.54648824  0.28824720    -0.07880
C103        C  0.08868392  0.54874127  0.30106634    -0.02440
C104        C  0.09166280  0.57515055  0.33805632     0.04380
N105        N  0.05040600  0.58290827  0.35117678     0.66890
H106        H  0.13762990  0.61399490  0.39118337     0.15790
H107        H  0.13035139  0.52710623  0.25960483     0.15500
N108        N  0.22285804  0.56894378  0.29587995     0.74590
O109        O  0.04049368  0.58207619  0.38889724    -0.38860
O110        O  0.02763104  0.59625612  0.32569223    -0.38800
O111        O  0.26779978  0.60535735  0.30499211    -0.39510
O112        O  0.21780885  0.53694080  0.26823614    -0.39570
C113        C  0.09482571  0.51280005  0.04284033    -0.11850
C114        C  0.09288167  0.54182443  0.07597105     0.05150
C115        C  0.13627353  0.59164967  0.08435757    -0.07140
C116        C  0.17959814  0.61154518  0.05853596    -0.07880
C117        C  0.18025480  0.58348142  0.02413535    -0.02440
C118        C  0.13722292  0.53325439  0.01636813     0.04380
N119        N  0.13388535  0.50409420  0.48014601     0.66890
H120        H  0.06172176  0.47470295  0.03622423     0.15790
H121        H  0.21229445  0.65011859  0.06444997     0.15500
N122        N  0.13618819  0.62368831  0.11733080     0.74590
O123        O  0.11464849  0.45549149  0.48227252    -0.38860
O124        O  0.14114159  0.52490202  0.44526574    -0.38800
O125        O  0.17712773  0.65200209  0.13754730    -0.39510
O126        O  0.09758101  0.62901497  0.12285972    -0.39570
C127        C  0.41771163  0.51786642  0.33037187    -0.11850
C128        C  0.44822009  0.54591613  0.29686438     0.05150
C129        C  0.45553280  0.59575838  0.28839606    -0.07140
C130        C  0.43265100  0.61625526  0.31412585    -0.07880
C131        C  0.40379170  0.58877848  0.34850329    -0.02440
C132        C  0.39661212  0.53903172  0.35680934     0.04380
N133        N  0.37151545  0.51112769  0.39352457     0.66890
H134        H  0.41221385  0.47988511  0.33717689     0.15790
H135        H  0.43866823  0.65455653  0.30796555     0.15500
N136        N  0.48775759  0.62704473  0.25527545     0.74590
O137        O  0.34235299  0.46232102  0.39232874    -0.38860
O138        O  0.38556788  0.53358816  0.42798983    -0.38800
O139        O  0.47558858  0.65528339  0.23511026    -0.39510
O140        O  0.53142529  0.63169376  0.24945420    -0.39570
C141        C  0.47924026  0.59873422  0.06119346    -0.11850
C142        C  0.44833860  0.54717434  0.07374752     0.05150
C143        C  0.39591089  0.51838578  0.06146002    -0.07140
C144        C  0.37615665  0.54215900  0.03605437    -0.07880
C145        C  0.40740426  0.59347203  0.02189670    -0.02440
C146        C  0.45990922  0.62200067  0.03500232     0.04380
N147        N  0.49521540  0.67342435  0.02063137     0.66890
H148        H  0.51966920  0.62031720  0.07017488     0.15790
H149        H  0.33599144  0.51973423  0.02664596     0.15500
N150        N  0.36260091  0.46495619  0.07345103     0.74590
O151        O  0.52117231  0.70916043  0.04636252    -0.38860
O152        O  0.51008014  0.67971203  0.48380894    -0.38800
O153        O  0.36920012  0.44852026  0.10723119    -0.39510
O154        O  0.32394218  0.43477480  0.05156489    -0.39570
C155        C  0.61283156  0.44605192  0.04367280    -0.11850
C156        C  0.58020193  0.39986731  0.02194789     0.05150
C157        C  0.52599852  0.37618200  0.02683502    -0.07140
C158        C  0.50596340  0.40047993  0.05113744    -0.07880
C159        C  0.53859677  0.44717984  0.07182214    -0.02440
C160        C  0.59286486  0.47013235  0.06859060     0.04380
N161        N  0.62817991  0.51843382  0.08896392     0.66890
H162        H  0.65434278  0.46450014  0.04016495     0.15790
H163        H  0.46440482  0.38274915  0.05388459     0.15500
N164        N  0.49053566  0.32865687  0.00621709     0.74590
O165        O  0.67281506  0.52809812  0.09912790    -0.38860
O166        O  0.61714810  0.55367287  0.09326948    -0.38800
O167        O  0.48621020  0.28647870  0.01815122    -0.39510
O168        O  0.45624541  0.32725132  0.48287122    -0.39570
C169        C  0.60616261  0.46294695  0.35497033    -0.11850
C170        C  0.59199601  0.41114469  0.34691498     0.05150
C171        C  0.56074208  0.38547166  0.31219846    -0.07140
C172        C  0.54340531  0.41201219  0.28740012    -0.07880
C173        C  0.55594669  0.46312545  0.29651262    -0.02440
C174        C  0.58894306  0.48942726  0.33021678     0.04410
N175        N  0.60582206  0.54292104  0.33946681     0.66890
H176        H  0.63099412  0.48306093  0.38104070     0.15790
H177        H  0.51802967  0.39172106  0.26164839     0.15500
N178        N  0.54752831  0.33369274  0.30058286     0.74590
O179        O  0.61537534  0.55922200  0.37608325    -0.38860
O180        O  0.61599163  0.57515274  0.31091770    -0.38800
O181        O  0.52850584  0.29738624  0.32643866    -0.39510
O182        O  0.54636032  0.32241772  0.26306572    -0.39570
C183        C  0.82851927  0.37213981  0.33578372    -0.11850
C184        C  0.81090803  0.40546818  0.34893773     0.05150
C185        C  0.83601963  0.45696467  0.33376865    -0.07140
C186        C  0.87833547  0.47404627  0.30753656    -0.07880
C187        C  0.89698533  0.44138615  0.29615232    -0.02440
C188        C  0.87129901  0.38931140  0.30965637     0.04380
N189        N  0.88842890  0.35385460  0.29812270     0.66890
H190        H  0.80937309  0.33238995  0.34653527     0.15790
H191        H  0.89828913  0.51408542  0.29723554     0.15500
N192        N  0.82026850  0.49307321  0.34524336     0.74590
O193        O  0.87576444  0.31385981  0.31933993    -0.38860
O194        O  0.91275017  0.35986113  0.26515449    -0.38800
O195        O  0.83377807  0.51552557  0.37973683    -0.39510
O196        O  0.80392542  0.51115888  0.31799235    -0.39570
C197        C  0.81521816  0.39173225  0.05579247    -0.11850
C198        C  0.81186069  0.42170169  0.02423708     0.05150
C199        C  0.85354803  0.47284224  0.01791309    -0.07140
C200        C  0.89776244  0.49230314  0.04276481    -0.07880
C201        C  0.90158413  0.46213629  0.07391977    -0.02440
C202        C  0.85963046  0.41107869  0.08061902     0.04380
N203        N  0.86247921  0.37730470  0.11054701     0.66890
H204        H  0.78384003  0.35207244  0.05993740     0.15790
H205        H  0.92976800  0.53134781  0.03745854     0.15500
N206        N  0.85341015  0.50420171  0.48469650     0.74590
O207        O  0.82229561  0.34469960  0.12938346    -0.38860
O208        O  0.90312758  0.37507947  0.11432518    -0.38800
O209        O  0.81947345  0.51710045  0.48315068    -0.39510
O210        O  0.89229716  0.52685014  0.46158552    -0.39570
C211        C  0.36611311  0.83654062  0.34002272    -0.11850
C212        C  0.39367021  0.81030715  0.34496105     0.05150
C213        C  0.43937807  0.82719892  0.32191983    -0.07140
C214        C  0.45832614  0.87184343  0.29777211    -0.07880
C215        C  0.43229489  0.89945989  0.29480704    -0.02440
C216        C  0.38445039  0.88080126  0.31499953     0.04380
N217        N  0.35427717  0.90585855  0.31087107     0.66890
H218        H  0.33056404  0.82328445  0.35681081     0.15790
H219        H  0.49439336  0.88574102  0.28146803     0.15500
N220        N  0.46702829  0.79971863  0.32237955     0.74590
O221        O  0.31490873  0.89185335  0.33293873    -0.38860
O222        O  0.36387032  0.93888459  0.28310330    -0.38800
O223        O  0.44356360  0.75169768  0.31415607    -0.39510
O224        O  0.51581772  0.82463356  0.32408079    -0.39570
C225        C  0.55125792  0.13739660  0.28730371    -0.11850
C226        C  0.54790385  0.09161123  0.30218365     0.05150
C227        C  0.56980818  0.09287435  0.34105020    -0.07140
C228        C  0.59111717  0.13839175  0.36474790    -0.07880
C229        C  0.59333025  0.18363143  0.35030567    -0.02440
C230        C  0.57489323  0.18386786  0.31033941     0.04380
N231        N  0.58147985  0.23073293  0.29207791     0.66890
H232        H  0.53525764  0.13691292  0.25736982     0.15790
H233        H  0.60617802  0.13843487  0.39500266     0.15500
N234        N  0.57194578  0.04904463  0.35664973     0.74590
O235        O  0.55330021  0.22797007  0.26220372    -0.38860
O236        O  0.62014136  0.27442207  0.30130019    -0.38800
O237        O  0.58507815  0.02382115  0.33351539    -0.39510
O238        O  0.56651039  0.03912193  0.39456338    -0.39570
C239        C  0.47706298  0.87687866  0.07040594    -0.11850
C240        C  0.45454310  0.90797463  0.07236554     0.05150
C241        C  0.40651573  0.89097227  0.05268327    -0.07140
C242        C  0.38396935  0.84496358  0.02952399    -0.07880
C243        C  0.40764308  0.81494835  0.02554950    -0.02440
C244        C  0.45377380  0.83004998  0.04788815     0.04380
N245        N  0.47616471  0.79755937  0.04955903     0.66890
H246        H  0.51264738  0.88883367  0.08715099     0.15790
H247        H  0.34829189  0.83370466  0.01318759     0.15500
N248        N  0.37917433  0.91868925  0.05657569     0.74590
O249        O  0.52460163  0.81779673  0.05219830    -0.38860
O250        O  0.44758801  0.74927951  0.05529754    -0.38800
O251        O  0.40185588  0.96703645  0.05046504    -0.39510
O252        O  0.33059614  0.89369149  0.06021232    -0.39570
C253        C  0.59610851  0.11535172  0.05720479    -0.11850
C254        C  0.54978799  0.10073546  0.07766107     0.05150
C255        C  0.52477676  0.12950434  0.07138176    -0.07140
C256        C  0.54677535  0.17182827  0.04422627    -0.07880
C257        C  0.59278208  0.18595892  0.02319939    -0.02440
C258        C  0.61748973  0.15687379  0.02957076     0.04380
N259        N  0.66170516  0.16600794  0.50602395     0.66890
H260        H  0.61415801  0.09209765  0.06096268     0.15790
H261        H  0.52770607  0.19392548  0.03938150     0.15500
N262        N  0.47621979  0.11517609  0.09051036     0.74590
O263        O  0.69700549  0.16114581  0.52263977    -0.38860
O264        O  0.66123449  0.16976907  0.46746433    -0.38800
O265        O  0.46841578  0.10165250  0.12765102    -0.39510
O266        O  0.44340270  0.12216427  0.07182318    -0.39570
C267        C  0.52503459  0.05066595  0.59976178     0.03550
C268        C  0.52381171  0.04875361  0.64277298    -0.12600
C269        C  0.50148277  0.00069988  0.66381984     0.01050
C270        C  0.48083836  0.95473750  0.63974761    -0.11130
C271        C  0.48048694  0.95656685  0.59679224     0.03540
C272        C  0.50422447  0.00455853  0.57704315    -0.10550
H273        H  0.53955644  0.08527677  0.65897556     0.09130
H274        H  0.46443388  0.91688148  0.65345149     0.06660
H275        H  0.50532964  0.00597725  0.54377960     0.06510
C276        C  0.45929795  0.94981364  0.77333279     0.03550
C277        C  0.46448164  0.95135579  0.73062072    -0.12600
C278        C  0.49763334  0.99847769  0.71012515     0.01050
C279        C  0.52654870  0.04358959  0.73464068    -0.11130
C280        C  0.51942755  0.04286407  0.77737056     0.03540
C281        C  0.48456644  0.99575352  0.79622266    -0.10550
H282        H  0.44191688  0.91514730  0.71435576     0.09130
H283        H  0.55551446  0.07970571  0.72122142     0.06660
H284        H  0.47831693  0.99423490  0.82904162     0.06510
Fe285      Fe  0.70225815  0.29935847  0.93936997     1.65780
Fe286      Fe  0.69906144  0.41095996  0.93534630     1.73250
Fe287      Fe  0.58703916  0.29386346  0.93291023     1.54420
O288        O  0.58801022  0.25196068  0.88280564    -0.81260
O289        O  0.64567225  0.41358936  0.97439301    -0.79560
O290        O  0.65216774  0.23909216  0.90079855    -0.83760
O291        O  0.66195628  0.25800470  0.98990048    -0.78620
O292        O  0.58058746  0.34458217  0.89304348    -0.80390
O293        O  0.74327493  0.41874307  0.98608969    -0.83140
C294        C  0.61339180  0.22975773  0.99386715     0.97630
C295        C  0.61273529  0.22818593  0.87900228     1.05070
O296        O  0.66281921  0.33491016  0.93590599    -1.12120
O297        O  0.75660951  0.41696769  0.89628623    -0.74550
O298        O  0.74583634  0.33797876  0.88914552    -0.78040
O299        O  0.58176554  0.23674437  0.97269346    -0.78730
C300        C  0.76824174  0.38572730  0.87955344     0.96530
O301        O  0.75860296  0.35393042  0.97833497    -0.76690
O302        O  0.65957607  0.41270226  0.88449081    -0.81880
C303        C  0.60337696  0.38063316  0.99143225     0.99150
C304        C  0.61188537  0.38707904  0.87558644     1.05070
O305        O  0.57989022  0.33254245  0.98248111    -0.77520
C306        C  0.76835873  0.39654049  0.99481966     1.03370
C307        C  0.51493981  0.47191012  0.59546512     0.03550
C308        C  0.51651662  0.47291133  0.63851587    -0.12600
C309        C  0.49817638  0.50069533  0.66132199     0.01050
C310        C  0.47813611  0.52716545  0.63897452    -0.11130
C311        C  0.47315691  0.52288778  0.59620024     0.03540
C312        C  0.49187513  0.49561794  0.57453153    -0.10550
H313        H  0.53195554  0.45146701  0.65325728     0.09130
H314        H  0.46579841  0.55119854  0.65395015     0.06660
H315        H  0.48944549  0.49376424  0.54129347     0.06510
C316        C  0.52953490  0.48568587  0.77321258     0.03550
C317        C  0.52925645  0.48565773  0.73013605    -0.12600
C318        C  0.49970393  0.50208764  0.70770235     0.01050
C319        C  0.47122979  0.51959100  0.73035761    -0.11130
C320        C  0.47444776  0.52336565  0.77329141     0.03540
C321        C  0.50245455  0.50497738  0.79441655    -0.10550
H322        H  0.55278369  0.47301723  0.71497728     0.09130
H323        H  0.44591364  0.53025990  0.71549888     0.06660
H324        H  0.50325317  0.50573131  0.82768102     0.06510
Fe325      Fe  0.29077091  0.70162497  0.93987658     1.65780
Fe326      Fe  0.29190130  0.58806730  0.93455379     1.73250
Fe327      Fe  0.40614785  0.70495648  0.93330129     1.54410
O328        O  0.40751160  0.75503331  0.88916351    -0.81260
O329        O  0.33794784  0.58484482  0.98047294    -0.79560
O330        O  0.33215085  0.75197374  0.89291671    -0.83760
O331        O  0.33918233  0.75363496  0.98349114    -0.78620
O332        O  0.41064482  0.65978885  0.88685575    -0.80390
O333        O  0.23890105  0.57961575  0.97826446    -0.83140
C334        C  0.38560507  0.77173705  0.99494318     0.97630
C335        C  0.37654481  0.76941774  0.87711593     1.05070
O336        O  0.32967276  0.66488388  0.93590262    -1.12120
O337        O  0.24241445  0.58348624  0.88800274    -0.74550
O338        O  0.23667873  0.65441527  0.89703585    -0.78040
O339        O  0.41424948  0.75644556  0.97941579    -0.78730
C340        C  0.22279932  0.61131094  0.87946855     0.96530
O341        O  0.24386443  0.65584111  0.98695028    -0.76690
O342        O  0.33811044  0.58304677  0.89097607    -0.81880
C343        C  0.38477610  0.61416814  0.99182863     0.99150
C344        C  0.38269434  0.61238364  0.87648321     1.05070
O345        O  0.41327901  0.65933434  0.97720691    -0.77520
C346        C  0.22419397  0.60800943  0.99525847     1.03370
C347        C  0.04362054  0.52053424  0.59895429     0.03550
C348        C  0.99738375  0.50311898  0.57715946    -0.12600
C349        C  0.95050473  0.48412715  0.59776218     0.01050
C350        C  0.95033618  0.48534238  0.64075158    -0.11130
C351        C  0.99587074  0.50040931  0.66378319     0.03540
C352        C  0.04231904  0.51695580  0.64194050    -0.10550
H353        H  0.99780060  0.50398808  0.54389731     0.09130
H354        H  0.91403028  0.47406605  0.65545175     0.06660
H355        H  0.07790364  0.52694367  0.65766909     0.06510
C356        C  0.03992628  0.52091212  0.77662800     0.03550
C357        C  0.99265069  0.48964620  0.79638987    -0.12600
C358        C  0.94653076  0.46519263  0.77403888     0.01050
C359        C  0.94758880  0.46786673  0.73119955    -0.11130
C360        C  0.99467044  0.49780155  0.70999142     0.03540
C361        C  0.04051231  0.52549429  0.73364918    -0.10550
H362        H  0.99134003  0.48556098  0.82946892     0.09130
H363        H  0.91111358  0.44592170  0.71524781     0.06660
H364        H  0.07696994  0.55176279  0.71926556     0.06510
C365        C  0.13632142  0.59525805  0.86228653    -0.11850
C366        C  0.17916103  0.59172509  0.85015474     0.05150
C367        C  0.17800354  0.56864107  0.81186944    -0.07140
C368        C  0.13220618  0.54648827  0.78824720    -0.07880
C369        C  0.08868392  0.54874129  0.80106634    -0.02440
C370        C  0.09166280  0.57515056  0.83805633     0.04380
N371        N  0.05040601  0.58290828  0.85117680     0.66890
H372        H  0.13762991  0.61399490  0.89118339     0.15790
H373        H  0.13035140  0.52710626  0.75960483     0.15500
N374        N  0.22285804  0.56894381  0.79587994     0.74590
O375        O  0.04049369  0.58207618  0.88889727    -0.38860
O376        O  0.02763105  0.59625613  0.82569226    -0.38800
O377        O  0.26779979  0.60535736  0.80499211    -0.39510
O378        O  0.21780886  0.53694085  0.76823611    -0.39570
C379        C  0.09482570  0.51280007  0.54284034    -0.11850
C380        C  0.09288167  0.54182445  0.57597105     0.05150
C381        C  0.13627353  0.59164969  0.58435757    -0.07140
C382        C  0.17959814  0.61154520  0.55853596    -0.07880
C383        C  0.18025480  0.58348143  0.52413535    -0.02440
C384        C  0.13722291  0.53325440  0.51636814     0.04380
N385        N  0.13388536  0.50409419  0.98014600     0.66890
H386        H  0.06172175  0.47470297  0.53622424     0.15790
H387        H  0.21229446  0.65011861  0.56444997     0.15500
N388        N  0.13618820  0.62368834  0.61733080     0.74590
O389        O  0.11464850  0.45549148  0.98227251    -0.38860
O390        O  0.14114161  0.52490202  0.94526573    -0.38800
O391        O  0.17712775  0.65200212  0.63754729    -0.39510
O392        O  0.09758103  0.62901500  0.62285972    -0.39570
C393        C  0.41771164  0.51786642  0.83037188    -0.11850
C394        C  0.44822010  0.54591613  0.79686438     0.05150
C395        C  0.45553280  0.59575837  0.78839606    -0.07140
C396        C  0.43265101  0.61625526  0.81412584    -0.07880
C397        C  0.40379172  0.58877848  0.84850330    -0.02440
C398        C  0.39661213  0.53903172  0.85680935     0.04380
N399        N  0.37151546  0.51112770  0.89352458     0.66890
H400        H  0.41221386  0.47988511  0.83717689     0.15790
H401        H  0.43866824  0.65455653  0.80796555     0.15500
N402        N  0.48775758  0.62704472  0.75527544     0.74590
O403        O  0.34235302  0.46232103  0.89232876    -0.38860
O404        O  0.38556790  0.53358818  0.92798984    -0.38800
O405        O  0.47558857  0.65528337  0.73511026    -0.39510
O406        O  0.53142529  0.63169376  0.74945419    -0.39570
C407        C  0.47924026  0.59873421  0.56119344    -0.11850
C408        C  0.44833859  0.54717434  0.57374753     0.05150
C409        C  0.39591087  0.51838579  0.56146005    -0.07140
C410        C  0.37615663  0.54215901  0.53605440    -0.07880
C411        C  0.40740425  0.59347202  0.52189670    -0.02440
C412        C  0.45990922  0.62200066  0.53500230     0.04380
N413        N  0.49521540  0.67342433  0.52063133     0.66890
H414        H  0.51966920  0.62031718  0.57017484     0.15790
H415        H  0.33599141  0.51973425  0.52664600     0.15500
N416        N  0.36260088  0.46495621  0.57345107     0.74590
O417        O  0.52117233  0.70916042  0.54636246    -0.38860
O418        O  0.51008015  0.67971209  0.98380899    -0.38800
O419        O  0.36920010  0.44852029  0.60723124    -0.39510
O420        O  0.32394213  0.43477482  0.55156495    -0.39570
C421        C  0.61283156  0.44605192  0.54367280    -0.11850
C422        C  0.58020194  0.39986732  0.52194789     0.05150
C423        C  0.52599852  0.37618201  0.52683501    -0.07140
C424        C  0.50596340  0.40047995  0.55113743    -0.07880
C425        C  0.53859677  0.44717984  0.57182214    -0.02440
C426        C  0.59286485  0.47013235  0.56859060     0.04380
N427        N  0.62817990  0.51843382  0.58896392     0.66890
H428        H  0.65434278  0.46450015  0.54016495     0.15790
H429        H  0.46440482  0.38274916  0.55388457     0.15500
N430        N  0.49053566  0.32865689  0.50621707     0.74590
O431        O  0.67281505  0.52809812  0.59912791    -0.38860
O432        O  0.61714810  0.55367288  0.59326949    -0.38800
O433        O  0.48621019  0.28647872  0.51815119    -0.39510
O434        O  0.45624540  0.32725128  0.98287125    -0.39570
C435        C  0.60616260  0.46294694  0.85497033    -0.11850
C436        C  0.59199600  0.41114468  0.84691498     0.05150
C437        C  0.56074208  0.38547165  0.81219846    -0.07140
C438        C  0.54340531  0.41201218  0.78740012    -0.07880
C439        C  0.55594668  0.46312544  0.79651262    -0.02440
C440        C  0.58894305  0.48942725  0.83021678     0.04410
N441        N  0.60582205  0.54292103  0.83946681     0.66890
H442        H  0.63099411  0.48306092  0.88104071     0.15790
H443        H  0.51802968  0.39172106  0.76164839     0.15500
N444        N  0.54752832  0.33369274  0.80058285     0.74590
O445        O  0.61537532  0.55922198  0.87608326    -0.38860
O446        O  0.61599163  0.57515273  0.81091771    -0.38800
O447        O  0.52850587  0.29738624  0.82643865    -0.39510
O448        O  0.54636034  0.32241772  0.76306571    -0.39570
C449        C  0.82851929  0.37213983  0.83578373    -0.11850
C450        C  0.81090802  0.40546818  0.84893772     0.05150
C451        C  0.83601961  0.45696467  0.83376864    -0.07140
C452        C  0.87833546  0.47404628  0.80753656    -0.07880
C453        C  0.89698533  0.44138617  0.79615233    -0.02440
C454        C  0.87129903  0.38931142  0.80965638     0.04380
N455        N  0.88842894  0.35385464  0.79812273     0.66890
H456        H  0.80937311  0.33238997  0.84653529     0.15790
H457        H  0.89828910  0.51408542  0.79723553     0.15500
N458        N  0.82026846  0.49307320  0.84524334     0.74590
O459        O  0.87576449  0.31385985  0.81933997    -0.38860
O460        O  0.91275021  0.35986116  0.76515452    -0.38800
O461        O  0.83377803  0.51552558  0.87973680    -0.39510
O462        O  0.80392536  0.51115884  0.81799233    -0.39570
C463        C  0.81521817  0.39173227  0.55579247    -0.11850
C464        C  0.81186070  0.42170172  0.52423709     0.05150
C465        C  0.85354802  0.47284227  0.51791311    -0.07140
C466        C  0.89776244  0.49230317  0.54276482    -0.07880
C467        C  0.90158413  0.46213632  0.57391978    -0.02440
C468        C  0.85963047  0.41107872  0.58061903     0.04380
N469        N  0.86247922  0.37730472  0.61054702     0.66890
H470        H  0.78384004  0.35207246  0.55993740     0.15790
H471        H  0.92976799  0.53134785  0.53745856     0.15500
N472        N  0.85341016  0.50420167  0.98469648     0.74590
O473        O  0.82229562  0.34469962  0.62938346    -0.38860
O474        O  0.90312760  0.37507951  0.61432519    -0.38800
O475        O  0.81947346  0.51710041  0.98315064    -0.39510
O476        O  0.89229717  0.52685010  0.96158550    -0.39570
C477        C  0.36611312  0.83654063  0.84002273    -0.11850
C478        C  0.39367021  0.81030715  0.84496106     0.05150
C479        C  0.43937805  0.82719889  0.82191981    -0.07140
C480        C  0.45832611  0.87184340  0.79777208    -0.07880
C481        C  0.43229488  0.89945987  0.79480702    -0.02440
C482        C  0.38445040  0.88080126  0.81499954     0.04380
N483        N  0.35427720  0.90585858  0.81087109     0.66890
H484        H  0.33056406  0.82328448  0.85681084     0.15790
H485        H  0.49439332  0.88574097  0.78146799     0.15500
N486        N  0.46702825  0.79971859  0.82237952     0.74590
O487        O  0.31490887  0.89185351  0.83293886    -0.38860
O488        O  0.36387022  0.93888446  0.78310321    -0.38800
O489        O  0.44356355  0.75169764  0.81415606    -0.39510
O490        O  0.51581769  0.82463351  0.82408074    -0.39570
C491        C  0.55125791  0.13739659  0.78730370    -0.11850
C492        C  0.54790382  0.09161122  0.80218364     0.05150
C493        C  0.56980813  0.09287433  0.84105021    -0.07140
C494        C  0.59111711  0.13839173  0.86474791    -0.07880
C495        C  0.59333023  0.18363142  0.85030567    -0.02440
C496        C  0.57489322  0.18386785  0.81033940     0.04380
N497        N  0.58147986  0.23073293  0.79207789     0.66890
H498        H  0.53525765  0.13691292  0.75736980     0.15790
H499        H  0.60617794  0.13843484  0.89500267     0.15500
N500        N  0.57194570  0.04904460  0.85664975     0.74590
O501        O  0.55330026  0.22797008  0.76220368    -0.38860
O502        O  0.62014137  0.27442206  0.80130019    -0.38800
O503        O  0.58507809  0.02382112  0.83351542    -0.39510
O504        O  0.56651028  0.03912189  0.89456340    -0.39570
C505        C  0.47706298  0.87687865  0.57040593    -0.11850
C506        C  0.45454310  0.90797464  0.57236553     0.05150
C507        C  0.40651574  0.89097228  0.55268325    -0.07140
C508        C  0.38396936  0.84496358  0.52952398    -0.07880
C509        C  0.40764308  0.81494835  0.52554949    -0.02440
C510        C  0.45377380  0.83004998  0.54788815     0.04380
N511        N  0.47616469  0.79755936  0.54955903     0.66890
H512        H  0.51264737  0.88883367  0.58715099     0.15790
H513        H  0.34829190  0.83370468  0.51318757     0.15500
N514        N  0.37917434  0.91868927  0.55657566     0.74590
O515        O  0.52460162  0.81779672  0.55219830    -0.38860
O516        O  0.44758799  0.74927950  0.55529755    -0.38800
O517        O  0.40185589  0.96703646  0.55046496    -0.39510
O518        O  0.33059616  0.89369152  0.56021232    -0.39570
C519        C  0.59610851  0.11535175  0.55720482    -0.11850
C520        C  0.54978797  0.10073547  0.57766107     0.05150
C521        C  0.52477672  0.12950432  0.57138173    -0.07140
C522        C  0.54677532  0.17182827  0.54422625    -0.07880
C523        C  0.59278207  0.18595893  0.52319939    -0.02440
C524        C  0.61748974  0.15687382  0.52957079     0.04380
N525        N  0.66170513  0.16600789  0.00602390     0.66890
H526        H  0.61415802  0.09209770  0.56096273     0.15790
H527        H  0.52770603  0.19392546  0.53938146     0.15500
N528        N  0.47621971  0.11517604  0.59051030     0.74590
O529        O  0.69700545  0.16114573  0.02263969    -0.38860
O530        O  0.66123444  0.16976904  0.96746428    -0.38800
O531        O  0.46841559  0.10165228  0.62765092    -0.39510
O532        O  0.44340268  0.12216433  0.57182313    -0.39570
loop_ 
_geom_bond_atom_site_label_1 
_geom_bond_atom_site_label_2 
_geom_bond_distance 
_geom_bond_site_symmetry_2 
_ccdc_geom_bond_type 
C1            C2   1.403       .  A
C1            C6   1.396       .  A
C1          C254   1.479       .  S
C2            C3   1.418       .  A
C2            H7   1.078       .  S
C3            C4   1.417   1_545  A
C3           C12   1.513   1_545  S
C4            C5   1.401       .  A
C4            H8   1.076       .  S
C5            C6   1.395   1_565  A
C5          C240   1.478       .  S
C6            H9   1.085       .  S
C10          C11   1.399       .  A
C10          C15   1.395       .  A
C10         C215   1.476       .  S
C11          C12   1.415       .  A
C11          H16   1.076       .  S
C12          C13   1.416   1_565  A
C13          C14   1.408       .  A
C13          H17   1.078       .  S
C14          C15   1.401   1_545  A
C14         C226   1.492       .  S
C15          H18   1.083       .  S
Fe19         O35   2.073       .  S
Fe19         O25   2.051       .  S
Fe19         O32   2.052       .  S
Fe19         O24   2.074       .  S
Fe19         O30   1.957       .  S
Fe20         O23   2.084       .  S
Fe20         O27   2.055       .  S
Fe20         O31   2.084       .  S
Fe20         O36   2.051       .  S
Fe20         O30   1.957       .  S
Fe21         O39   2.058       .  S
Fe21         O26   2.082       .  S
Fe21         O33   2.088       .  S
Fe21         O22   2.064       .  S
Fe21         O30   1.963       .  S
O22          C29   1.269       .  A
O23          C37   1.275       .  A
O24          C29   1.271       .  A
O25          C28   1.267       .  A
O26          C38   1.270       .  A
O27          C40   1.265       .  A
C28         C523   1.482       .  S
C28          O33   1.274       .  A
C29         C229   1.478       .  S
O31          C34   1.273       .  A
O32          C34   1.270       .  A
C34         C184   1.493       .  S
O35          C40   1.269       .  A
O36          C38   1.266       .  A
C37         C422   1.488       .  S
C37          O39   1.269       .  A
C38         C170   1.479       .  S
C40         C464   1.476       .  S
C41          C42   1.403       .  A
C41          C46   1.396       .  A
C41         C159   1.477       .  S
C42          C43   1.418       .  A
C42          H47   1.077       .  S
C43          C44   1.416       .  A
C43          C52   1.512       .  S
C44          C45   1.400       .  A
C44          H48   1.078       .  S
C45          C46   1.395       .  A
C45         C142   1.473       .  S
C46          H49   1.085       .  S
C50          C51   1.404       .  A
C50          C55   1.397       .  A
C50         C173   1.485       .  S
C51          C52   1.417       .  A
C51          H56   1.077       .  S
C52          C53   1.417       .  A
C53          C54   1.402       .  A
C53          H57   1.077       .  S
C54          C55   1.398       .  A
C54         C128   1.486       .  S
C55          H58   1.084       .  S
Fe59         O75   2.067       .  S
Fe59         O65   2.054       .  S
Fe59         O72   2.054       .  S
Fe59         O64   2.067       .  S
Fe59         O70   1.974       .  S
Fe60         O63   2.070       .  S
Fe60         O67   2.058       .  S
Fe60         O71   2.076       .  S
Fe60         O76   2.047       .  S
Fe60         O70   1.976       .  S
Fe61         O79   2.064       .  S
Fe61         O66   2.075       .  S
Fe61         O73   2.070       .  S
Fe61         O62   2.064       .  S
Fe61         O70   1.980       .  S
O62          C69   1.269       .  A
O63          C77   1.274       .  A
O64          C69   1.271       .  A
O65          C68   1.267       .  A
O66          C78   1.269       .  A
O67          C80   1.266       .  A
C68         C509   1.489       .  S
C68          O73   1.268       .  A
C69         C212   1.492       .  S
O71          C74   1.271       .  A
O72          C74   1.268       .  A
C74         C100   1.477       .  S
O75          C80   1.268       .  A
O76          C78   1.264       .  A
C77         C411   1.494       .  S
C77          O79   1.269       .  A
C78         C131   1.479       .  S
C80         C383   1.481       .  S
C81          C82   1.400   1_455  A
C81          C86   1.404       .  A
C81         C114   1.486       .  S
C82          C83   1.397       .  A
C82          H87   1.084       .  S
C83          C84   1.401       .  A
C83         C201   1.484       .  S
C84          C85   1.415       .  A
C84          H88   1.079       .  S
C85          C86   1.416   1_655  A
C85          C94   1.508       .  S
C86          H89   1.080       .  S
C90          C91   1.401   1_455  A
C90          C95   1.407       .  A
C90         C103   1.490       .  S
C91          C92   1.394       .  A
C91          H96   1.084       .  S
C92          C93   1.398       .  A
C92         C187   1.474       .  S
C93          C94   1.414       .  A
C93          H97   1.079       .  S
C94          C95   1.416   1_655  A
C95          H98   1.080       .  S
C99         C100   1.402       .  A
C99         C104   1.398       .  A
C99         H106   1.084       .  S
C100        C101   1.415       .  A
C101        C102   1.410       .  A
C101        N108   1.443       .  S
C102        C103   1.408       .  A
C102        H107   1.083       .  S
C103        C104   1.416       .  A
C104        N105   1.439       .  S
N105        O109   1.263       .  A
N105        O110   1.262       .  A
N108        O111   1.263       .  A
N108        O112   1.263       .  A
C113        C114   1.403       .  A
C113        C118   1.399       .  A
C113        H120   1.084       .  S
C114        C115   1.417       .  A
C115        C116   1.407       .  A
C115        N122   1.438       .  S
C116        C117   1.404       .  A
C116        H121   1.084       .  S
C117        C118   1.417       .  A
C117        C346   1.481   1_554  S
C118        N385   1.437   1_554  S
N119        C384   1.437       .  S
N119        O123   1.262       .  A
N119        O124   1.262       .  A
N122        O125   1.263       .  A
N122        O126   1.262       .  A
C127        C128   1.402       .  A
C127        C132   1.398       .  A
C127        H134   1.084       .  S
C128        C129   1.419       .  A
C129        C130   1.407       .  A
C129        N136   1.438       .  S
C130        C131   1.403       .  A
C130        H135   1.083       .  S
C131        C132   1.416       .  A
C132        N133   1.438       .  S
N133        O137   1.262       .  A
N133        O138   1.262       .  A
N136        O139   1.263       .  A
N136        O140   1.262       .  A
C141        C142   1.397       .  A
C141        C146   1.401       .  A
C141        H148   1.084       .  S
C142        C143   1.413       .  A
C143        C144   1.405       .  A
C143        N150   1.443       .  S
C144        C145   1.409       .  A
C144        H149   1.083       .  S
C145        C146   1.422       .  A
C145        C343   1.494   1_554  S
C146        N147   1.433       .  S
N147        O151   1.262       .  A
N147        O418   1.262   1_554  A
N150        O153   1.262       .  A
N150        O154   1.263       .  A
O152        N413   1.262       .  A
C155        C156   1.406       .  A
C155        C160   1.406       .  A
C155        H162   1.084       .  S
C156        C157   1.417       .  A
C156        C303   1.488   1_554  S
C157        C158   1.401       .  A
C157        N164   1.432       .  S
C158        C159   1.400       .  A
C158        H163   1.084       .  S
C159        C160   1.415       .  A
C160        N161   1.442       .  S
N161        O165   1.263       .  A
N161        O166   1.262       .  A
N164        O167   1.262       .  A
N164        O434   1.262   1_554  A
O168        N430   1.262       .  A
C169        C170   1.404       .  A
C169        C174   1.401       .  A
C169        H176   1.084       .  S
C170        C171   1.416       .  A
C171        C172   1.406       .  A
C171        N178   1.437       .  S
C172        C173   1.405       .  A
C172        H177   1.084       .  S
C173        C174   1.414       .  A
C174        N175   1.440       .  S
N175        O179   1.263       .  A
N175        O180   1.263       .  A
N178        O181   1.261       .  A
N178        O182   1.263       .  A
C183        C184   1.411       .  A
C183        C188   1.407       .  A
C183        H190   1.083       .  S
C184        C185   1.416       .  A
C185        C186   1.399       .  A
C185        N192   1.431       .  S
C186        C187   1.400       .  A
C186        H191   1.085       .  S
C187        C188   1.412       .  A
C188        N189   1.444       .  S
N189        O193   1.263       .  A
N189        O194   1.262       .  A
N192        O195   1.262       .  A
N192        O196   1.262       .  A
C197        C198   1.402       .  A
C197        C202   1.405       .  A
C197        H204   1.084       .  S
C198        C199   1.414       .  A
C198        C306   1.476   1_554  S
C199        C200   1.401       .  A
C199        N472   1.435   1_554  S
C200        C201   1.403       .  A
C200        H205   1.084       .  S
C201        C202   1.417       .  A
C202        N203   1.439       .  S
N203        O207   1.263       .  A
N203        O208   1.263       .  A
N206        C465   1.435       .  S
N206        O209   1.262       .  A
N206        O210   1.263       .  A
C211        C212   1.410       .  A
C211        C216   1.409       .  A
C211        H218   1.082       .  S
C212        C213   1.417       .  A
C213        C214   1.400       .  A
C213        N220   1.436       .  S
C214        C215   1.400       .  A
C214        H219   1.085       .  S
C215        C216   1.415       .  A
C216        N217   1.447       .  S
N217        O221   1.263       .  A
N217        O222   1.262       .  A
N220        O223   1.262       .  A
N220        O224   1.263       .  A
C225        C226   1.408       .  A
C225        C230   1.408       .  A
C225        H232   1.083       .  S
C226        C227   1.417       .  A
C227        C228   1.400       .  A
C227        N234   1.438       .  S
C228        C229   1.402       .  A
C228        H233   1.083       .  S
C229        C230   1.415       .  A
C230        N231   1.442       .  S
N231        O235   1.263       .  A
N231        O236   1.263       .  A
N234        O237   1.262       .  A
N234        O238   1.263       .  A
C239        C240   1.402       .  A
C239        C244   1.407       .  A
C239        H246   1.084       .  S
C240        C241   1.413       .  A
C241        C242   1.400       .  A
C241        N248   1.439       .  S
C242        C243   1.406       .  A
C242        H247   1.083       .  S
C243        C244   1.418       .  A
C243        C334   1.489   1_554  S
C244        N245   1.437       .  S
N245        O249   1.263       .  A
N245        O250   1.263       .  A
N248        O251   1.261       .  A
N248        O252   1.263       .  A
C253        C254   1.401       .  A
C253        C258   1.401       .  A
C253        H260   1.085       .  S
C254        C255   1.416       .  A
C255        C256   1.407       .  A
C255        N262   1.440       .  S
C256        C257   1.405       .  A
C256        H261   1.084       .  S
C257        C258   1.417       .  A
C257        C294   1.482   1_554  S
C258        N525   1.438       .  S
N259        C524   1.438       .  S
N259        O263   1.262       .  A
N259        O264   1.262       .  A
N262        O265   1.261       .  A
N262        O266   1.263       .  A
C267        C268   1.403       .  A
C267        C272   1.396       .  A
C267        C520   1.479       .  S
C268        C269   1.418       .  A
C268        H273   1.078       .  S
C269        C270   1.417   1_545  A
C269        C278   1.513   1_545  S
C270        C271   1.401       .  A
C270        H274   1.076       .  S
C271        C272   1.395   1_565  A
C271        C506   1.478       .  S
C272        H275   1.085       .  S
C276        C277   1.399       .  A
C276        C281   1.395       .  A
C276        C481   1.476       .  S
C277        C278   1.415       .  A
C277        H282   1.076       .  S
C278        C279   1.416   1_565  A
C279        C280   1.408       .  A
C279        H283   1.078       .  S
C280        C281   1.401   1_545  A
C280        C492   1.492       .  S
C281        H284   1.083       .  S
Fe285       O301   2.073       .  S
Fe285       O291   2.051       .  S
Fe285       O298   2.052       .  S
Fe285       O290   2.074       .  S
Fe285       O296   1.957       .  S
Fe286       O289   2.084       .  S
Fe286       O293   2.055       .  S
Fe286       O297   2.084       .  S
Fe286       O302   2.051       .  S
Fe286       O296   1.957       .  S
Fe287       O305   2.058       .  S
Fe287       O292   2.082       .  S
Fe287       O299   2.088       .  S
Fe287       O288   2.064       .  S
Fe287       O296   1.963       .  S
O288        C295   1.269       .  A
O289        C303   1.275       .  A
O290        C295   1.271       .  A
O291        C294   1.267       .  A
O292        C304   1.270       .  A
O293        C306   1.265       .  A
C294        O299   1.274       .  A
C295        C495   1.478       .  S
O297        C300   1.273       .  A
O298        C300   1.270       .  A
C300        C450   1.493       .  S
O301        C306   1.269       .  A
O302        C304   1.266       .  A
C303        O305   1.269       .  A
C304        C436   1.479       .  S
C307        C308   1.403       .  A
C307        C312   1.396       .  A
C307        C425   1.477       .  S
C308        C309   1.418       .  A
C308        H313   1.077       .  S
C309        C310   1.416       .  A
C309        C318   1.512       .  S
C310        C311   1.400       .  A
C310        H314   1.078       .  S
C311        C312   1.395       .  A
C311        C408   1.473       .  S
C312        H315   1.085       .  S
C316        C317   1.404       .  A
C316        C321   1.397       .  A
C316        C439   1.485       .  S
C317        C318   1.417       .  A
C317        H322   1.077       .  S
C318        C319   1.417       .  A
C319        C320   1.402       .  A
C319        H323   1.077       .  S
C320        C321   1.398       .  A
C320        C394   1.486       .  S
C321        H324   1.084       .  S
Fe325       O341   2.067       .  S
Fe325       O331   2.054       .  S
Fe325       O338   2.054       .  S
Fe325       O330   2.067       .  S
Fe325       O336   1.974       .  S
Fe326       O329   2.070       .  S
Fe326       O333   2.058       .  S
Fe326       O337   2.076       .  S
Fe326       O342   2.047       .  S
Fe326       O336   1.976       .  S
Fe327       O345   2.064       .  S
Fe327       O332   2.075       .  S
Fe327       O339   2.070       .  S
Fe327       O328   2.064       .  S
Fe327       O336   1.980       .  S
O328        C335   1.269       .  A
O329        C343   1.274       .  A
O330        C335   1.271       .  A
O331        C334   1.267       .  A
O332        C344   1.269       .  A
O333        C346   1.266       .  A
C334        O339   1.268       .  A
C335        C478   1.492       .  S
O337        C340   1.271       .  A
O338        C340   1.268       .  A
C340        C366   1.477       .  S
O341        C346   1.268       .  A
O342        C344   1.264       .  A
C343        O345   1.269       .  A
C344        C397   1.479       .  S
C347        C348   1.400   1_455  A
C347        C352   1.404       .  A
C347        C380   1.486       .  S
C348        C349   1.397       .  A
C348        H353   1.084       .  S
C349        C350   1.401       .  A
C349        C467   1.484       .  S
C350        C351   1.415       .  A
C350        H354   1.079       .  S
C351        C352   1.416   1_655  A
C351        C360   1.508       .  S
C352        H355   1.080       .  S
C356        C357   1.401   1_455  A
C356        C361   1.407       .  A
C356        C369   1.490       .  S
C357        C358   1.394       .  A
C357        H362   1.084       .  S
C358        C359   1.398       .  A
C358        C453   1.474       .  S
C359        C360   1.414       .  A
C359        H363   1.079       .  S
C360        C361   1.416   1_655  A
C361        H364   1.080       .  S
C365        C366   1.402       .  A
C365        C370   1.398       .  A
C365        H372   1.084       .  S
C366        C367   1.415       .  A
C367        C368   1.410       .  A
C367        N374   1.443       .  S
C368        C369   1.408       .  A
C368        H373   1.083       .  S
C369        C370   1.416       .  A
C370        N371   1.439       .  S
N371        O375   1.263       .  A
N371        O376   1.262       .  A
N374        O377   1.263       .  A
N374        O378   1.263       .  A
C379        C380   1.403       .  A
C379        C384   1.399       .  A
C379        H386   1.084       .  S
C380        C381   1.417       .  A
C381        C382   1.407       .  A
C381        N388   1.438       .  S
C382        C383   1.404       .  A
C382        H387   1.084       .  S
C383        C384   1.417       .  A
N385        O389   1.262       .  A
N385        O390   1.262       .  A
N388        O391   1.263       .  A
N388        O392   1.262       .  A
C393        C394   1.402       .  A
C393        C398   1.398       .  A
C393        H400   1.084       .  S
C394        C395   1.419       .  A
C395        C396   1.407       .  A
C395        N402   1.438       .  S
C396        C397   1.403       .  A
C396        H401   1.083       .  S
C397        C398   1.416       .  A
C398        N399   1.438       .  S
N399        O403   1.262       .  A
N399        O404   1.262       .  A
N402        O405   1.263       .  A
N402        O406   1.262       .  A
C407        C408   1.397       .  A
C407        C412   1.401       .  A
C407        H414   1.084       .  S
C408        C409   1.413       .  A
C409        C410   1.405       .  A
C409        N416   1.443       .  S
C410        C411   1.409       .  A
C410        H415   1.083       .  S
C411        C412   1.422       .  A
C412        N413   1.433       .  S
N413        O417   1.262       .  A
N416        O419   1.262       .  A
N416        O420   1.263       .  A
C421        C422   1.406       .  A
C421        C426   1.406       .  A
C421        H428   1.084       .  S
C422        C423   1.417       .  A
C423        C424   1.401       .  A
C423        N430   1.432       .  S
C424        C425   1.400       .  A
C424        H429   1.084       .  S
C425        C426   1.415       .  A
C426        N427   1.442       .  S
N427        O431   1.263       .  A
N427        O432   1.262       .  A
N430        O433   1.262       .  A
C435        C436   1.404       .  A
C435        C440   1.401       .  A
C435        H442   1.084       .  S
C436        C437   1.416       .  A
C437        C438   1.406       .  A
C437        N444   1.437       .  S
C438        C439   1.405       .  A
C438        H443   1.084       .  S
C439        C440   1.414       .  A
C440        N441   1.440       .  S
N441        O445   1.263       .  A
N441        O446   1.263       .  A
N444        O447   1.261       .  A
N444        O448   1.263       .  A
C449        C450   1.411       .  A
C449        C454   1.407       .  A
C449        H456   1.083       .  S
C450        C451   1.416       .  A
C451        C452   1.399       .  A
C451        N458   1.431       .  S
C452        C453   1.400       .  A
C452        H457   1.085       .  S
C453        C454   1.412       .  A
C454        N455   1.444       .  S
N455        O459   1.263       .  A
N455        O460   1.262       .  A
N458        O461   1.262       .  A
N458        O462   1.262       .  A
C463        C464   1.402       .  A
C463        C468   1.405       .  A
C463        H470   1.084       .  S
C464        C465   1.414       .  A
C465        C466   1.401       .  A
C466        C467   1.403       .  A
C466        H471   1.084       .  S
C467        C468   1.417       .  A
C468        N469   1.439       .  S
N469        O473   1.263       .  A
N469        O474   1.263       .  A
N472        O475   1.262       .  A
N472        O476   1.263       .  A
C477        C478   1.410       .  A
C477        C482   1.409       .  A
C477        H484   1.082       .  S
C478        C479   1.417       .  A
C479        C480   1.400       .  A
C479        N486   1.436       .  S
C480        C481   1.400       .  A
C480        H485   1.085       .  S
C481        C482   1.415       .  A
C482        N483   1.447       .  S
N483        O487   1.263       .  A
N483        O488   1.262       .  A
N486        O489   1.262       .  A
N486        O490   1.263       .  A
C491        C492   1.408       .  A
C491        C496   1.408       .  A
C491        H498   1.083       .  S
C492        C493   1.417       .  A
C493        C494   1.400       .  A
C493        N500   1.438       .  S
C494        C495   1.402       .  A
C494        H499   1.083       .  S
C495        C496   1.415       .  A
C496        N497   1.442       .  S
N497        O501   1.263       .  A
N497        O502   1.263       .  A
N500        O503   1.262       .  A
N500        O504   1.263       .  A
C505        C506   1.402       .  A
C505        C510   1.407       .  A
C505        H512   1.084       .  S
C506        C507   1.413       .  A
C507        C508   1.400       .  A
C507        N514   1.439       .  S
C508        C509   1.406       .  A
C508        H513   1.083       .  S
C509        C510   1.418       .  A
C510        N511   1.437       .  S
N511        O515   1.263       .  A
N511        O516   1.263       .  A
N514        O517   1.261       .  A
N514        O518   1.263       .  A
C519        C520   1.401       .  A
C519        C524   1.401       .  A
C519        H526   1.085       .  S
C520        C521   1.416       .  A
C521        C522   1.407       .  A
C521        N528   1.440       .  S
C522        C523   1.405       .  A
C522        H527   1.084       .  S
C523        C524   1.417       .  A
N525        O529   1.262       .  A
N525        O530   1.262   1_554  A
N528        O531   1.261       .  A
N528        O532   1.263       .  A
