geometry optimzed in LAMMPS
_audit_creation_date              2020-12-01 
_audit_creation_method            'lammps2cif' 
_symmetry_space_group_name_H-M    'P1' 
_symmetry_Int_Tables_number       1 
_symmetry_cell_setting            triclinic 
loop_ 
_symmetry_equiv_pos_as_xyz 
  x,y,z 
_cell_length_a                    35.96049759 
_cell_length_b                    35.957600284300035 
_cell_length_c                    46.982267482840264 
_cell_angle_alpha                 99.7462334575971 
_cell_angle_beta                  80.1577983953101 
_cell_angle_gamma                 122.60342734122034 
loop_ 
_atom_site_label 
_atom_site_type_symbol 
_atom_site_fract_x 
_atom_site_fract_y 
_atom_site_fract_z 
_atom_site_charge 
C1          C  0.35330770  0.14261458  0.98065202     0.81000
N2          N  0.30867165  0.11911753  0.97940907    -0.77300
C3          C  0.28750531  0.14036413  0.97750201     0.83400
N4          N  0.31109465  0.18494247  0.97639133    -0.77300
C5          C  0.35563828  0.20850592  0.97762494     0.83500
N6          N  0.37682852  0.18728422  0.97953081    -0.79000
C7          C  0.35328713  0.14261168  0.23065738     0.81000
N8          N  0.37680818  0.18728220  0.22953530    -0.77300
C9          C  0.35561779  0.20850314  0.22762996     0.83400
N10         N  0.31107414  0.18494083  0.22639766    -0.77300
C11         C  0.28748443  0.14036182  0.22750941     0.83500
N12         N  0.30865070  0.11911580  0.22941589    -0.79000
C13         C  0.14488740  0.35153489  0.37958397     0.81000
N14         N  0.18952394  0.37503121  0.38082498    -0.77300
C15         C  0.21069055  0.35378460  0.38272995     0.83400
N16         N  0.18710145  0.30920589  0.38384054    -0.77300
C17         C  0.14255743  0.28564311  0.38260884     0.83500
N18         N  0.12136684  0.30686479  0.38070506    -0.79000
C19         C  0.14486855  0.35153213  0.12958911     0.81000
N20         N  0.12134820  0.30686223  0.13070888    -0.77300
C21         C  0.14253817  0.28563954  0.13261171     0.83400
N22         N  0.18708247  0.30920227  0.13384375    -0.77300
C23         C  0.21067139  0.35378090  0.13273448     0.83500
N24         N  0.18950556  0.37502848  0.13083045    -0.79000
N25         N  0.47063951  0.48737741  0.00099247    -0.05300
N26         N  0.46162499  0.46964474  0.02555468    -0.57500
N27         N  0.46976934  0.06441059  0.47050705    -0.05000
N28         N  0.46315227  0.09772189  0.47407381    -0.59600
N29         N  0.43164644  0.02627025  0.47055139    -0.04600
N30         N  0.39829423  0.03283424  0.47414876    -0.57400
N31         N  0.00874522  0.02550038  0.00094643    -0.04300
N32         N  0.02648384  0.03453306  0.02547460    -0.59900
C33         C  0.49676140  0.49939182  0.04048559     0.96800
C34         C  0.41852128  0.07745069  0.47638326     0.96600
N35         N  0.07006502  0.09416276  0.40216821    -0.05500
N36         N  0.08624045  0.12516734  0.38417267    -0.58000
N37         N  0.09616401  0.06808723  0.45787324    -0.03600
N38         N  0.12713513  0.08422411  0.47583325    -0.59300
N39         N  0.10912476  0.05495749  0.43234211    -0.05600
N40         N  0.14904882  0.06179077  0.43240093    -0.58300
N41         N  0.05688913  0.10707535  0.42769989    -0.03300
N42         N  0.06372566  0.14699589  0.42760627    -0.59400
Mn43       Mn  0.03339587  0.06729243  0.46484576     1.18400
C44         C  0.08150883  0.15755405  0.40029020     0.98900
C45         C  0.15955729  0.07952627  0.45969546     0.99600
N46         N  0.38907090  0.43919023  0.42788698    -0.05600
N47         N  0.34914670  0.43235834  0.42782777    -0.61900
N48         N  0.44130565  0.38707149  0.43253093    -0.04400
N49         N  0.43447010  0.34715159  0.43262527    -0.62600
N50         N  0.42812857  0.39998420  0.45806218    -0.05100
N51         N  0.41195349  0.36898022  0.47605811    -0.62200
N52         N  0.40203072  0.42605912  0.40235702    -0.04000
N53         N  0.37106027  0.40992244  0.38439609    -0.62800
Mn54       Mn  0.42884560  0.46269879  0.46496588     1.10700
C55         C  0.33863912  0.41462238  0.40053346     1.00100
C56         C  0.41668645  0.33659382  0.45994137     1.00200
N57         N  0.06654759  0.46787680  0.38967847    -0.05100
N58         N  0.09990086  0.46131405  0.38608241    -0.60500
N59         N  0.48944696  0.46864434  0.35928480    -0.04400
N60         N  0.47170227  0.45961111  0.33475850    -0.57200
N61         N  0.02755125  0.00676750  0.35923730    -0.05700
N62         N  0.03656008  0.02450087  0.33467585    -0.60000
N63         N  0.02842568  0.42973728  0.38972374    -0.04700
N64         N  0.03504310  0.39642548  0.38615877    -0.57200
Mn65       Mn  0.06934812  0.03144825  0.39526353     1.20200
Mn66       Mn  0.46479848  0.42685365  0.39538505     1.10100
Cl67       Cl  0.49909719  0.49707341  0.43011511    -0.85200
C68         C  0.07967383  0.41669767  0.38384952     0.97100
C69         C  0.00142110  0.49475334  0.31974710     0.96900
N70         N  0.47062395  0.48737820  0.25099739    -0.05300
N71         N  0.46161632  0.46964582  0.27555831    -0.57500
N72         N  0.46974997  0.06440894  0.22051048    -0.05000
N73         N  0.46313194  0.09772051  0.22407710    -0.59600
N74         N  0.43162771  0.02626918  0.22055580    -0.04600
N75         N  0.39827457  0.03283180  0.22415347    -0.57400
N76         N  0.00872966  0.02550291  0.25095004    -0.04300
N77         N  0.02647339  0.03453528  0.27547568    -0.59900
C78         C  0.49675525  0.49939324  0.29048742     0.96800
C79         C  0.41850127  0.07744849  0.22638730     0.96600
N80         N  0.07004770  0.09416104  0.15217198    -0.05500
N81         N  0.08622265  0.12516476  0.13417597    -0.58000
N82         N  0.09614567  0.06808814  0.20787815    -0.03600
N83         N  0.12711548  0.08422499  0.22583951    -0.59300
N84         N  0.10910581  0.05495700  0.18234848    -0.05600
N85         N  0.14903033  0.06178917  0.18240828    -0.58300
N86         N  0.05686987  0.10707413  0.17770309    -0.03300
N87         N  0.06370484  0.14699311  0.17760838    -0.59400
Mn88       Mn  0.03337725  0.06729267  0.21484940     1.18400
C89         C  0.08148891  0.15755098  0.15029214     0.98900
C90         C  0.15953699  0.07952514  0.20970262     0.99600
N91         N  0.38905324  0.43918871  0.17789161    -0.05600
N92         N  0.34912827  0.43235525  0.17783251    -0.61900
N93         N  0.44128717  0.38707044  0.18253538    -0.04400
N94         N  0.43445030  0.34714963  0.18262916    -0.62600
N95         N  0.42811115  0.39998335  0.20806658    -0.05100
N96         N  0.41193476  0.36897843  0.22606243    -0.62200
N97         N  0.40201343  0.42605872  0.15236103    -0.04000
N98         N  0.37104282  0.40992132  0.13440053    -0.62800
Mn99       Mn  0.42882814  0.46269799  0.21497084     1.10700
C100        C  0.33862072  0.41461954  0.15053824     1.00100
C101        C  0.41666661  0.33659187  0.20994525     1.00200
N102        N  0.06652980  0.46787510  0.13968505    -0.05100
N103        N  0.09988373  0.46131242  0.13608964    -0.60500
N104        N  0.48943362  0.46864498  0.10928844    -0.04400
N105        N  0.47169478  0.45961114  0.08475911    -0.57200
N106        N  0.02753957  0.00676855  0.10924159    -0.05700
N107        N  0.03655353  0.02449907  0.08468000    -0.60000
N108        N  0.02840876  0.42973703  0.13972945    -0.04700
N109        N  0.03502536  0.39642382  0.13616454    -0.57200
Mn110      Mn  0.06933161  0.03144717  0.14526921     1.20200
Mn111      Mn  0.46478150  0.42685319  0.14538923     1.10100
Cl112      Cl  0.49907937  0.49707262  0.18011961    -0.85200
C113        C  0.07965570  0.41669609  0.13385628     0.97100
C114        C  0.00141774  0.49475194  0.06974833     0.96900
C115        C  0.11776805  0.23895321  0.13599569    -0.12500
C116        C  0.09968721  0.20087025  0.14120218    -0.14100
C117        C  0.29533968  0.39650407  0.14146897    -0.12500
C118        C  0.25730699  0.37849442  0.13622297    -0.12900
C119        C  0.12212460  0.37430682  0.12938319    -0.12500
C120        C  0.10280771  0.39359965  0.13075642    -0.14100
C121        C  0.11778727  0.23895667  0.38599397    -0.12500
C122        C  0.09970721  0.20087407  0.39120060    -0.14100
C123        C  0.25732574  0.37849838  0.38621807    -0.12500
C124        C  0.29535852  0.39650789  0.39146417    -0.14100
C125        C  0.12214286  0.37430887  0.37937707    -0.12500
C126        C  0.10282606  0.39360179  0.38074987    -0.14100
C127        C  0.37603165  0.11983778  0.23086413    -0.12500
C128        C  0.39534877  0.10054450  0.22948959    -0.14100
C129        C  0.38038842  0.25518995  0.22424310    -0.12500
C130        C  0.39846826  0.29327169  0.21903545    -0.14100
C131        C  0.24084957  0.11564840  0.22401992    -0.12500
C132        C  0.20281723  0.09763927  0.21877284    -0.14100
C133        C  0.39536957  0.10054743  0.47948520    -0.12500
C134        C  0.37605243  0.11984031  0.48085918    -0.14100
C135        C  0.39848879  0.29327429  0.46903166    -0.12500
C136        C  0.38040868  0.25519209  0.47423913    -0.14100
C137        C  0.20283810  0.09764073  0.46876462    -0.12500
C138        C  0.24087046  0.11564991  0.47401170    -0.14100
C139        C  0.35330792  0.14261452  0.48065188     0.81000
N140        N  0.30867141  0.11911752  0.47940901    -0.77300
C141        C  0.28750550  0.14036412  0.47750211     0.83400
N142        N  0.31109457  0.18494254  0.47639134    -0.77300
C143        C  0.35563833  0.20850588  0.47762501     0.83500
N144        N  0.37682839  0.18728423  0.47953074    -0.79000
C145        C  0.35328724  0.14261181  0.73065744     0.81000
N146        N  0.37680814  0.18728219  0.72953526    -0.77300
C147        C  0.35561796  0.20850323  0.72762998     0.83400
N148        N  0.31107400  0.18494072  0.72639772    -0.77300
C149        C  0.28748458  0.14036194  0.72750941     0.83500
N150        N  0.30865068  0.11911577  0.72941584    -0.79000
C151        C  0.14488758  0.35153491  0.87958396     0.81000
N152        N  0.18952398  0.37503122  0.88082498    -0.77300
C153        C  0.21069063  0.35378463  0.88272996     0.83400
N154        N  0.18710150  0.30920592  0.88384054    -0.77300
C155        C  0.14255756  0.28564323  0.88260885     0.83500
N156        N  0.12136681  0.30686472  0.88070499    -0.79000
C157        C  0.14486837  0.35153221  0.62958914     0.81000
N158        N  0.12134831  0.30686211  0.63070884    -0.77300
C159        C  0.14253798  0.28563965  0.63261160     0.83400
N160        N  0.18708264  0.30920231  0.63384383    -0.77300
C161        C  0.21067126  0.35378102  0.63273458     0.83500
N162        N  0.18950564  0.37502843  0.63083049    -0.79000
N163        N  0.47063935  0.48737734  0.50099249    -0.05300
N164        N  0.46162498  0.46964478  0.52555464    -0.57500
N165        N  0.46976895  0.06440989  0.97050698    -0.05000
N166        N  0.46315218  0.09772218  0.97407378    -0.59600
N167        N  0.43164706  0.02627064  0.97055131    -0.04600
N168        N  0.39829388  0.03283425  0.97414876    -0.57400
N169        N  0.00874513  0.02550033  0.50094640    -0.04300
N170        N  0.02648410  0.03453317  0.52547457    -0.59900
C171        C  0.49676164  0.49939189  0.54048563     0.96800
C172        C  0.41852151  0.07745052  0.97638326     0.96600
N173        N  0.07006517  0.09416275  0.90216806    -0.05500
N174        N  0.08624056  0.12516734  0.88417278    -0.58000
N175        N  0.09616402  0.06808697  0.95787278    -0.03600
N176        N  0.12713557  0.08422430  0.97583343    -0.59300
N177        N  0.10912429  0.05495756  0.93234245    -0.05600
N178        N  0.14904918  0.06179075  0.93240084    -0.58300
N179        N  0.05688912  0.10707540  0.92769997    -0.03300
N180        N  0.06372566  0.14699571  0.92760628    -0.59400
Mn181      Mn  0.03339597  0.06729246  0.96484574     1.18400
C182        C  0.08150877  0.15755405  0.90029019     0.98900
C183        C  0.15955707  0.07952614  0.95969531     0.99600
N184        N  0.38907125  0.43919023  0.92788686    -0.05600
N185        N  0.34914666  0.43235833  0.92782774    -0.61900
N186        N  0.44130572  0.38707130  0.93253093    -0.04400
N187        N  0.43447010  0.34715168  0.93262528    -0.62600
N188        N  0.42812866  0.39998434  0.95806221    -0.05100
N189        N  0.41195341  0.36898019  0.97605809    -0.62200
N190        N  0.40203071  0.42605913  0.90235704    -0.04000
N191        N  0.37106025  0.40992236  0.88439602    -0.62800
Mn192      Mn  0.42884564  0.46269877  0.96496588     1.10700
C193        C  0.33863942  0.41462249  0.90053350     1.00100
C194        C  0.41668627  0.33659371  0.95994149     1.00200
N195        N  0.06654780  0.46787658  0.88967840    -0.05100
N196        N  0.09990093  0.46131414  0.88608232    -0.60500
N197        N  0.48944662  0.46864403  0.85928462    -0.04400
N198        N  0.47170237  0.45961115  0.83475865    -0.57200
N199        N  0.02755136  0.00676753  0.85923745    -0.05700
N200        N  0.03655995  0.02450069  0.83467572    -0.60000
N201        N  0.02842570  0.42973762  0.88972384    -0.04700
N202        N  0.03504334  0.39642536  0.88615880    -0.57200
Mn203      Mn  0.06934810  0.03144822  0.89526353     1.20200
Mn204      Mn  0.46479853  0.42685365  0.89538500     1.10100
Cl205      Cl  0.49909733  0.49707344  0.93011505    -0.85200
C206        C  0.07967367  0.41669750  0.88384945     0.97100
C207        C  0.00142113  0.49475339  0.81974726     0.96900
N208        N  0.47062478  0.48737917  0.75099714    -0.05300
N209        N  0.46161603  0.46964551  0.77555876    -0.57500
N210        N  0.46974996  0.06440882  0.72051055    -0.05000
N211        N  0.46313197  0.09772052  0.72407716    -0.59600
N212        N  0.43162774  0.02626921  0.72055591    -0.04600
N213        N  0.39827464  0.03283180  0.72415344    -0.57400
N214        N  0.00872831  0.02550178  0.75094966    -0.04300
N215        N  0.02647381  0.03453546  0.77547618    -0.59900
C216        C  0.49675504  0.49939318  0.79048704     0.96800
C217        C  0.41850137  0.07744853  0.72638731     0.96600
N218        N  0.07004744  0.09416111  0.65217240    -0.05500
N219        N  0.08622270  0.12516481  0.63417588    -0.58000
N220        N  0.09614548  0.06808837  0.70787858    -0.03600
N221        N  0.12711543  0.08422489  0.72583933    -0.59300
N222        N  0.10910640  0.05495690  0.68234821    -0.05600
N223        N  0.14902967  0.06178899  0.68240818    -0.58300
N224        N  0.05686977  0.10707349  0.67770293    -0.03300
N225        N  0.06370493  0.14699367  0.67760838    -0.59400
Mn226      Mn  0.03337718  0.06729266  0.71484943     1.18400
C227        C  0.08148877  0.15755070  0.65029230     0.98900
C228        C  0.15953735  0.07952532  0.70970266     0.99600
N229        N  0.38905290  0.43918855  0.67789133    -0.05600
N230        N  0.34912853  0.43235534  0.67783261    -0.61900
N231        N  0.44128723  0.38707031  0.68253528    -0.04400
N232        N  0.43445028  0.34714972  0.68262916    -0.62600
N233        N  0.42811110  0.39998338  0.70806664    -0.05100
N234        N  0.41193473  0.36897853  0.72606234    -0.62200
N235        N  0.40201394  0.42605892  0.65236126    -0.04000
N236        N  0.37104238  0.40992115  0.63440034    -0.62800
Mn237      Mn  0.42882809  0.46269794  0.71497080     1.10700
C238        C  0.33862087  0.41461945  0.65053805     1.00100
C239        C  0.41666646  0.33659173  0.70994528     1.00200
N240        N  0.06652975  0.46787492  0.63968512    -0.05100
N241        N  0.09988371  0.46131255  0.63608962    -0.60500
N242        N  0.48943348  0.46864481  0.60928804    -0.04400
N243        N  0.47169505  0.45961110  0.58475929    -0.57200
N244        N  0.02753886  0.00676763  0.60924223    -0.05700
N245        N  0.03655351  0.02449941  0.58467941    -0.60000
N246        N  0.02840875  0.42973734  0.63972938    -0.04700
N247        N  0.03502545  0.39642370  0.63616443    -0.57200
Mn248      Mn  0.06933158  0.03144719  0.64526923     1.20200
Mn249      Mn  0.46478151  0.42685317  0.64538921     1.10100
Cl250      Cl  0.49907933  0.49707259  0.68011961    -0.85200
C251        C  0.07965552  0.41669602  0.63385625     0.97100
C252        C  0.00141785  0.49475205  0.56974821     0.96900
C253        C  0.11776801  0.23895312  0.63599577    -0.12500
C254        C  0.09968731  0.20087045  0.64120212    -0.14100
C255        C  0.29533973  0.39650407  0.64146896    -0.12500
C256        C  0.25730711  0.37849451  0.63622297    -0.12900
C257        C  0.12212460  0.37430671  0.62938306    -0.12500
C258        C  0.10280763  0.39359967  0.63075641    -0.14100
C259        C  0.11778745  0.23895658  0.88599395    -0.12500
C260        C  0.09970727  0.20087411  0.89120064    -0.14100
C261        C  0.25732592  0.37849839  0.88621813    -0.12500
C262        C  0.29535867  0.39650791  0.89146402    -0.14100
C263        C  0.12214296  0.37430891  0.87937696    -0.12500
C264        C  0.10282611  0.39360169  0.88074994    -0.14100
C265        C  0.37603162  0.11983780  0.73086407    -0.12500
C266        C  0.39534875  0.10054452  0.72948957    -0.14100
C267        C  0.38038835  0.25518985  0.72424319    -0.12500
C268        C  0.39846816  0.29327167  0.71903538    -0.14100
C269        C  0.24084949  0.11564834  0.72401995    -0.12500
C270        C  0.20281723  0.09763921  0.71877272    -0.14100
C271        C  0.39536955  0.10054760  0.97948522    -0.12500
C272        C  0.37605256  0.11984029  0.98085929    -0.14100
C273        C  0.39848868  0.29327431  0.96903167    -0.12500
C274        C  0.38040866  0.25519198  0.97423919    -0.14100
C275        C  0.20283807  0.09764072  0.96876463    -0.12500
C276        C  0.24087050  0.11564987  0.97401172    -0.14100
C277        C  0.35330778  0.64261400  0.98065204     0.81000
N278        N  0.30867148  0.61911772  0.97940906    -0.77300
C279        C  0.28750527  0.64036357  0.97750203     0.83400
N280        N  0.31109473  0.68494272  0.97639132    -0.77300
C281        C  0.35563826  0.70850544  0.97762498     0.83500
N282        N  0.37682849  0.68728450  0.97953080    -0.79000
C283        C  0.35328713  0.64261159  0.23065740     0.81000
N284        N  0.37680817  0.68728222  0.22953530    -0.77300
C285        C  0.35561780  0.70850298  0.22762996     0.83400
N286        N  0.31107410  0.68494082  0.22639764    -0.77300
C287        C  0.28748440  0.64036177  0.22750940     0.83500
N288        N  0.30865075  0.61911581  0.22941589    -0.79000
C289        C  0.14488696  0.85153445  0.37958396     0.81000
N290        N  0.18952430  0.87503143  0.38082499    -0.77300
C291        C  0.21069003  0.85378433  0.38272994     0.83400
N292        N  0.18710180  0.80920621  0.38384054    -0.77300
C293        C  0.14255703  0.78564290  0.38260883     0.83500
N294        N  0.12136704  0.80686501  0.38070506    -0.79000
C295        C  0.14486847  0.85153227  0.12958911     0.81000
N296        N  0.12134821  0.80686193  0.13070889    -0.77300
C297        C  0.14253802  0.78563981  0.13261168     0.83400
N298        N  0.18708266  0.80920222  0.13384376    -0.77300
C299        C  0.21067120  0.85378105  0.13273447     0.83500
N300        N  0.18950559  0.87502833  0.13083046    -0.79000
N301        N  0.47063901  0.98737691  0.00099262    -0.05300
N302        N  0.46162514  0.96964502  0.02555453    -0.57500
N303        N  0.46976858  0.56440902  0.47050700    -0.05000
N304        N  0.46315212  0.59772272  0.47407390    -0.59600
N305        N  0.43164766  0.52627121  0.47055137    -0.04600
N306        N  0.39829352  0.53283432  0.47414882    -0.57400
N307        N  0.00874474  0.52549996  0.00094627    -0.04300
N308        N  0.02648390  0.53453308  0.02547488    -0.59900
C309        C  0.49676126  0.99939147  0.04048591     0.96800
C310        C  0.41852190  0.57745049  0.47638322     0.96600
N311        N  0.07006476  0.59416246  0.40216853    -0.05500
N312        N  0.08624063  0.62516762  0.38417259    -0.58000
N313        N  0.09616405  0.56808715  0.45787327    -0.03600
N314        N  0.12713509  0.58422408  0.47583327    -0.59300
N315        N  0.10912455  0.55495739  0.43234216    -0.05600
N316        N  0.14904882  0.56179070  0.43240092    -0.58300
N317        N  0.05688923  0.60707525  0.42769971    -0.03300
N318        N  0.06372565  0.64699590  0.42760635    -0.59400
Mn319      Mn  0.03339588  0.56729237  0.46484576     1.18400
C320        C  0.08150869  0.65755381  0.40029015     0.98900
C321        C  0.15955738  0.57952623  0.45969543     0.99600
N322        N  0.38907098  0.93919014  0.42788688    -0.05600
N323        N  0.34914679  0.93235827  0.42782783    -0.61900
N324        N  0.44130579  0.88707191  0.43253106    -0.04400
N325        N  0.43447003  0.84715125  0.43262529    -0.62600
N326        N  0.42812873  0.89998404  0.45806200    -0.05100
N327        N  0.41195341  0.86898023  0.47605813    -0.62200
N328        N  0.40203091  0.92605912  0.40235713    -0.04000
N329        N  0.37106020  0.90992247  0.38439601    -0.62800
Mn330      Mn  0.42884564  0.96269881  0.46496588     1.10700
C331        C  0.33863943  0.91462242  0.40053346     1.00100
C332        C  0.41668646  0.83659386  0.45994125     1.00200
N333        N  0.06654778  0.96787675  0.38967847    -0.05100
N334        N  0.09990090  0.96131423  0.38608243    -0.60500
N335        N  0.48944693  0.96864433  0.35928475    -0.04400
N336        N  0.47170247  0.95961116  0.33475852    -0.57200
N337        N  0.02755165  0.50676805  0.35923715    -0.05700
N338        N  0.03655985  0.52450057  0.33467611    -0.60000
N339        N  0.02842565  0.92973755  0.38972378    -0.04700
N340        N  0.03504339  0.89642553  0.38615877    -0.57200
Mn341      Mn  0.06934809  0.53144821  0.39526353     1.20200
Mn342      Mn  0.46479850  0.92685361  0.39538505     1.10100
Cl343      Cl  0.49909733  0.99707353  0.43011512    -0.85200
C344        C  0.07967374  0.91669771  0.38384953     0.97100
C345        C  0.00142095  0.99475308  0.31974724     0.96900
N346        N  0.47062377  0.98737798  0.25099749    -0.05300
N347        N  0.46161622  0.96964575  0.27555817    -0.57500
N348        N  0.46974952  0.56440805  0.22051046    -0.05000
N349        N  0.46313196  0.59772097  0.22407714    -0.59600
N350        N  0.43162859  0.52626975  0.22055576    -0.04600
N351        N  0.39827426  0.53283183  0.22415349    -0.57400
N352        N  0.00872908  0.52550244  0.25094987    -0.04300
N353        N  0.02647370  0.53453547  0.27547578    -0.59900
C354        C  0.49675538  0.99939339  0.29048747     0.96800
C355        C  0.41850158  0.57744824  0.22638725     0.96600
N356        N  0.07004734  0.59416081  0.15217231    -0.05500
N357        N  0.08622275  0.62516490  0.13417582    -0.58000
N358        N  0.09614526  0.56808817  0.20787832    -0.03600
N359        N  0.12711560  0.58422503  0.22583942    -0.59300
N360        N  0.10910651  0.55495697  0.18234836    -0.05600
N361        N  0.14902977  0.56178905  0.18240815    -0.58300
N362        N  0.05686979  0.60707359  0.17770283    -0.03300
N363        N  0.06370486  0.64699336  0.17760838    -0.59400
Mn364      Mn  0.03337721  0.56729264  0.21484939     1.18400
C365        C  0.08148880  0.65755061  0.15029220     0.98900
C366        C  0.15953730  0.57952554  0.20970278     0.99600
N367        N  0.38905262  0.93918857  0.17789162    -0.05600
N368        N  0.34912859  0.93235527  0.17783261    -0.61900
N369        N  0.44128718  0.88707062  0.18253533    -0.04400
N370        N  0.43445014  0.84714938  0.18262923    -0.62600
N371        N  0.42811095  0.89998305  0.20806667    -0.05100
N372        N  0.41193475  0.86897849  0.22606241    -0.62200
N373        N  0.40201376  0.92605869  0.15236097    -0.04000
N374        N  0.37104256  0.90992135  0.13440051    -0.62800
Mn375      Mn  0.42882812  0.96269795  0.21497083     1.10700
C376        C  0.33862078  0.91461952  0.15053807     1.00100
C377        C  0.41666658  0.83659183  0.20994516     1.00200
N378        N  0.06652977  0.96787527  0.13968508    -0.05100
N379        N  0.09988374  0.96131232  0.13608964    -0.60500
N380        N  0.48943280  0.96864414  0.10928815    -0.04400
N381        N  0.47169510  0.95961119  0.08475944    -0.57200
N382        N  0.02753851  0.50676735  0.10924193    -0.05700
N383        N  0.03655375  0.52449955  0.08467957    -0.60000
N384        N  0.02840880  0.92973689  0.13972945    -0.04700
N385        N  0.03502528  0.89642390  0.13616457    -0.57200
Mn386      Mn  0.06933159  0.53144710  0.14526921     1.20200
Mn387      Mn  0.46478155  0.92685321  0.14538924     1.10100
Cl388      Cl  0.49907929  0.99707259  0.18011959    -0.85200
C389        C  0.07965575  0.91669622  0.13385627     0.97100
C390        C  0.00141785  0.99475227  0.06974782     0.96900
C391        C  0.11776797  0.73895297  0.13599571    -0.12500
C392        C  0.09968730  0.70087047  0.14120213    -0.14100
C393        C  0.29533962  0.89650395  0.14146895    -0.12500
C394        C  0.25730719  0.87849453  0.13622297    -0.12900
C395        C  0.12212455  0.87430673  0.12938320    -0.12500
C396        C  0.10280776  0.89359970  0.13075642    -0.14100
C397        C  0.11778744  0.73895677  0.38599397    -0.12500
C398        C  0.09970731  0.70087415  0.39120062    -0.14100
C399        C  0.25732615  0.87849857  0.38621807    -0.12500
C400        C  0.29535837  0.89650774  0.39146411    -0.14100
C401        C  0.12214292  0.87430888  0.37937706    -0.12500
C402        C  0.10282613  0.89360170  0.38074986    -0.14100
C403        C  0.37603177  0.61983773  0.23086414    -0.12500
C404        C  0.39534868  0.60054443  0.22948960    -0.14100
C405        C  0.38038843  0.75518993  0.22424311    -0.12500
C406        C  0.39846809  0.79327146  0.21903547    -0.14100
C407        C  0.24084959  0.61564843  0.22401994    -0.12500
C408        C  0.20281709  0.59763912  0.21877283    -0.14100
C409        C  0.39536946  0.60054767  0.47948523    -0.12500
C410        C  0.37605271  0.61984019  0.48085916    -0.14100
C411        C  0.39848868  0.79327415  0.46903165    -0.12500
C412        C  0.38040871  0.75519216  0.47423909    -0.14100
C413        C  0.20283779  0.59764045  0.46876460    -0.12500
C414        C  0.24087073  0.61565009  0.47401175    -0.14100
C415        C  0.35330724  0.64261411  0.48065187     0.81000
N416        N  0.30867190  0.61911769  0.47940902    -0.77300
C417        C  0.28750479  0.64036371  0.47750207     0.83400
N418        N  0.31109499  0.68494279  0.47639135    -0.77300
C419        C  0.35563770  0.70850548  0.47762501     0.83500
N420        N  0.37682871  0.68728442  0.47953075    -0.79000
C421        C  0.35328689  0.64261169  0.73065744     0.81000
N422        N  0.37680832  0.68728220  0.72953526    -0.77300
C423        C  0.35561746  0.70850298  0.72762997     0.83400
N424        N  0.31107420  0.68494084  0.72639772    -0.77300
C425        C  0.28748413  0.64036168  0.72750939     0.83500
N426        N  0.30865092  0.61911583  0.72941586    -0.79000
C427        C  0.14488731  0.85153458  0.87958396     0.81000
N428        N  0.18952405  0.87503138  0.88082498    -0.77300
C429        C  0.21069049  0.85378441  0.88272997     0.83400
N430        N  0.18710160  0.80920617  0.88384054    -0.77300
C431        C  0.14255740  0.78564293  0.88260887     0.83500
N432        N  0.12136688  0.80686496  0.88070499    -0.79000
C433        C  0.14486895  0.85153228  0.62958916     0.81000
N434        N  0.12134800  0.80686201  0.63070883    -0.77300
C435        C  0.14253855  0.78563982  0.63261161     0.83400
N436        N  0.18708229  0.80920211  0.63384382    -0.77300
C437        C  0.21067182  0.85378115  0.63273461     0.83500
N438        N  0.18950530  0.87502831  0.63083047    -0.79000
N439        N  0.47063910  0.98737699  0.50099255    -0.05300
N440        N  0.46162529  0.96964514  0.52555458    -0.57500
N441        N  0.46976872  0.56440946  0.97050699    -0.05000
N442        N  0.46315217  0.59772242  0.97407380    -0.59600
N443        N  0.43164736  0.52627094  0.97055134    -0.04600
N444        N  0.39829370  0.53283419  0.97414878    -0.57400
N445        N  0.00874497  0.52550012  0.50094633    -0.04300
N446        N  0.02648395  0.53453295  0.52547471    -0.59900
C447        C  0.49676101  0.99939131  0.54048580     0.96800
C448        C  0.41852149  0.57745059  0.97638327     0.96600
N449        N  0.07006496  0.59416244  0.90216822    -0.05500
N450        N  0.08624058  0.62516747  0.88417272    -0.58000
N451        N  0.09616386  0.56808673  0.95787262    -0.03600
N452        N  0.12713563  0.58422429  0.97583351    -0.59300
N453        N  0.10912413  0.55495754  0.93234261    -0.05600
N454        N  0.14904922  0.56179068  0.93240084    -0.58300
N455        N  0.05688914  0.60707548  0.92769988    -0.03300
N456        N  0.06372551  0.64699552  0.92760635    -0.59400
Mn457      Mn  0.03339593  0.56729240  0.96484574     1.18400
C458        C  0.08150875  0.65755403  0.90029009     0.98900
C459        C  0.15955683  0.57952607  0.95969530     0.99600
N460        N  0.38907055  0.93919025  0.92788715    -0.05600
N461        N  0.34914713  0.93235834  0.92782779    -0.61900
N462        N  0.44130579  0.88707170  0.93253104    -0.04400
N463        N  0.43447019  0.84715150  0.93262529    -0.62600
N464        N  0.42812863  0.89998414  0.95806205    -0.05100
N465        N  0.41195340  0.86898019  0.97605812    -0.62200
N466        N  0.40203077  0.92605883  0.90235671    -0.04000
N467        N  0.37106045  0.90992260  0.88439619    -0.62800
Mn468      Mn  0.42884565  0.96269880  0.96496590     1.10700
C469        C  0.33863910  0.91462232  0.90053336     1.00100
C470        C  0.41668654  0.83659382  0.95994141     1.00200
N471        N  0.06654821  0.96787708  0.88967841    -0.05100
N472        N  0.09990076  0.96131416  0.88608233    -0.60500
N473        N  0.48944711  0.96864461  0.85928477    -0.04400
N474        N  0.47170224  0.95961106  0.83475842    -0.57200
N475        N  0.02755183  0.50676806  0.85923724    -0.05700
N476        N  0.03655982  0.52450051  0.83467603    -0.60000
N477        N  0.02842555  0.92973706  0.88972380    -0.04700
N478        N  0.03504327  0.89642581  0.88615884    -0.57200
Mn479      Mn  0.06934812  0.53144820  0.89526353     1.20200
Mn480      Mn  0.46479852  0.92685362  0.89538503     1.10100
Cl481      Cl  0.49909733  0.99707349  0.93011512    -0.85200
C482        C  0.07967398  0.91669759  0.88384944     0.97100
C483        C  0.00142128  0.99475336  0.81974745     0.96900
N484        N  0.47062479  0.98737902  0.75099718    -0.05300
N485        N  0.46161603  0.96964541  0.77555860    -0.57500
N486        N  0.46974911  0.56440756  0.72051052    -0.05000
N487        N  0.46313198  0.59772116  0.72407721    -0.59600
N488        N  0.43162908  0.52626996  0.72055584    -0.04600
N489        N  0.39827395  0.53283196  0.72415351    -0.57400
N490        N  0.00872830  0.52550177  0.75094968    -0.04300
N491        N  0.02647381  0.53453559  0.77547618    -0.59900
C492        C  0.49675514  0.99939320  0.79048692     0.96800
C493        C  0.41850167  0.57744809  0.72638726     0.96600
N494        N  0.07004707  0.59416077  0.65217263    -0.05500
N495        N  0.08622280  0.62516500  0.63417578    -0.58000
N496        N  0.09614534  0.56808836  0.70787869    -0.03600
N497        N  0.12711536  0.58422490  0.72583930    -0.59300
N498        N  0.10910661  0.55495686  0.68234823    -0.05600
N499        N  0.14902940  0.56178893  0.68240818    -0.58300
N500        N  0.05686979  0.60707338  0.67770276    -0.03300
N501        N  0.06370482  0.64699366  0.67760840    -0.59400
Mn502      Mn  0.03337721  0.56729265  0.71484945     1.18400
C503        C  0.08148864  0.65755041  0.65029227     0.98900
C504        C  0.15953747  0.57952559  0.70970280     0.99600
N505        N  0.38905299  0.93918854  0.67789146    -0.05600
N506        N  0.34912842  0.93235530  0.67783256    -0.61900
N507        N  0.44128731  0.88707052  0.68253523    -0.04400
N508        N  0.43445026  0.84714958  0.68262923    -0.62600
N509        N  0.42811090  0.89998308  0.70806673    -0.05100
N510        N  0.41193478  0.86897859  0.72606232    -0.62200
N511        N  0.40201361  0.92605870  0.65236110    -0.04000
N512        N  0.37104262  0.90992137  0.63440037    -0.62800
Mn513      Mn  0.42882816  0.96269791  0.71497079     1.10700
C514        C  0.33862079  0.91461956  0.65053811     1.00100
C515        C  0.41666659  0.83659173  0.70994520     1.00200
N516        N  0.06653046  0.96787542  0.63968505    -0.05100
N517        N  0.09988355  0.96131262  0.63608963    -0.60500
N518        N  0.48943341  0.96864484  0.60928794    -0.04400
N519        N  0.47169486  0.95961096  0.58475944    -0.57200
N520        N  0.02753866  0.50676744  0.60924220    -0.05700
N521        N  0.03655377  0.52449959  0.58467946    -0.60000
N522        N  0.02840846  0.92973670  0.63972939    -0.04700
N523        N  0.03502560  0.89642405  0.63616439    -0.57200
Mn524      Mn  0.06933153  0.53144713  0.64526929     1.20200
Mn525      Mn  0.46478155  0.92685324  0.64538922     1.10100
Cl526      Cl  0.49907931  0.99707258  0.68011958    -0.85200
C527        C  0.07965584  0.91669609  0.63385621     0.97100
C528        C  0.00141852  0.99475289  0.56974819     0.96900
C529        C  0.11776791  0.73895294  0.63599579    -0.12500
C530        C  0.09968728  0.70087052  0.64120210    -0.14100
C531        C  0.29533996  0.89650418  0.64146897    -0.12500
C532        C  0.25730697  0.87849441  0.63622293    -0.12900
C533        C  0.12212447  0.87430678  0.62938307    -0.12500
C534        C  0.10280782  0.89359962  0.63075642    -0.14100
C535        C  0.11778748  0.73895676  0.88599395    -0.12500
C536        C  0.09970716  0.70087404  0.89120066    -0.14100
C537        C  0.25732586  0.87849840  0.88621812    -0.12500
C538        C  0.29535876  0.89650791  0.89146404    -0.14100
C539        C  0.12214298  0.87430886  0.87937696    -0.12500
C540        C  0.10282605  0.89360174  0.88074994    -0.14100
C541        C  0.37603180  0.61983764  0.73086407    -0.12500
C542        C  0.39534850  0.60054453  0.72948959    -0.14100
C543        C  0.38038836  0.75518984  0.72424319    -0.12500
C544        C  0.39846806  0.79327145  0.71903537    -0.14100
C545        C  0.24084969  0.61564843  0.72402000    -0.12500
C546        C  0.20281685  0.59763906  0.71877282    -0.14100
C547        C  0.39536961  0.60054738  0.97948522    -0.12500
C548        C  0.37605244  0.61984054  0.98085929    -0.14100
C549        C  0.39848860  0.79327415  0.96903162    -0.12500
C550        C  0.38040873  0.75519206  0.97423915    -0.14100
C551        C  0.20283801  0.59764057  0.96876463    -0.12500
C552        C  0.24087044  0.61564990  0.97401169    -0.14100
C553        C  0.85330744  0.14261462  0.98065201     0.81000
N554        N  0.80867173  0.11911747  0.97940907    -0.77300
C555        C  0.78750515  0.14036422  0.97750200     0.83400
N556        N  0.81109477  0.18494249  0.97639133    -0.77300
C557        C  0.85563801  0.20850593  0.97762493     0.83500
N558        N  0.87682855  0.18728410  0.97953081    -0.79000
C559        C  0.85328700  0.14261173  0.23065738     0.81000
N560        N  0.87680829  0.18728217  0.22953531    -0.77300
C561        C  0.85561760  0.20850316  0.22762995     0.83400
N562        N  0.81107424  0.18494082  0.22639766    -0.77300
C563        C  0.78748426  0.14036183  0.22750940     0.83500
N564        N  0.80865081  0.11911581  0.22941590    -0.79000
C565        C  0.64488713  0.35153489  0.37958395     0.81000
N566        N  0.68952410  0.37503121  0.38082499    -0.77300
C567        C  0.71069026  0.35378462  0.38272994     0.83400
N568        N  0.68710155  0.30920595  0.38384055    -0.77300
C569        C  0.64255714  0.28564311  0.38260883     0.83500
N570        N  0.62136688  0.30686473  0.38070506    -0.79000
C571        C  0.64486881  0.35153217  0.12958912     0.81000
N572        N  0.62134810  0.30686227  0.13070887    -0.77300
C573        C  0.64253841  0.28563953  0.13261172     0.83400
N574        N  0.68708234  0.30920224  0.13384374    -0.77300
C575        C  0.71067172  0.35378089  0.13273450     0.83500
N576        N  0.68950536  0.37502845  0.13083045    -0.79000
N577        N  0.97063948  0.48737738  0.00099246    -0.05300
N578        N  0.96162503  0.46964475  0.02555467    -0.57500
N579        N  0.96976932  0.06441059  0.47050704    -0.05000
N580        N  0.96315225  0.09772188  0.47407382    -0.59600
N581        N  0.93164634  0.02627023  0.47055138    -0.04600
N582        N  0.89829420  0.03283427  0.47414876    -0.57400
N583        N  0.50874518  0.02550036  0.00094642    -0.04300
N584        N  0.52648389  0.03453307  0.02547461    -0.59900
C585        C  0.99676133  0.49939176  0.04048560     0.96800
C586        C  0.91852127  0.07745075  0.47638328     0.96600
N587        N  0.57006501  0.09416282  0.40216816    -0.05500
N588        N  0.58624041  0.12516729  0.38417270    -0.58000
N589        N  0.59616403  0.06808723  0.45787325    -0.03600
N590        N  0.62713515  0.08422411  0.47583325    -0.59300
N591        N  0.60912479  0.05495750  0.43234211    -0.05600
N592        N  0.64904884  0.06179077  0.43240093    -0.58300
N593        N  0.55688914  0.10707532  0.42769994    -0.03300
N594        N  0.56372573  0.14699595  0.42760627    -0.59400
Mn595      Mn  0.53339592  0.06729245  0.46484576     1.18400
C596        C  0.58150873  0.15755407  0.40029022     0.98900
C597        C  0.65955728  0.07952626  0.45969545     0.99600
N598        N  0.88907095  0.43919023  0.42788696    -0.05600
N599        N  0.84914664  0.43235831  0.42782777    -0.61900
N600        N  0.94130571  0.38707149  0.43253087    -0.04400
N601        N  0.93447005  0.34715159  0.43262528    -0.62600
N602        N  0.92812854  0.39998416  0.45806224    -0.05100
N603        N  0.91195348  0.36898029  0.47605806    -0.62200
N604        N  0.90203076  0.42605913  0.40235703    -0.04000
N605        N  0.87106021  0.40992239  0.38439606    -0.62800
Mn606      Mn  0.92884559  0.46269879  0.46496587     1.10700
C607        C  0.83863923  0.41462241  0.40053349     1.00100
C608        C  0.91668648  0.33659376  0.45994137     1.00200
N609        N  0.56654709  0.46787662  0.38967850    -0.05100
N610        N  0.59990107  0.46131395  0.38608239    -0.60500
N611        N  0.98944677  0.46864416  0.35928473    -0.04400
N612        N  0.97170232  0.45961110  0.33475859    -0.57200
N613        N  0.52755152  0.00676786  0.35923720    -0.05700
N614        N  0.53656006  0.02450080  0.33467602    -0.60000
N615        N  0.52842599  0.42973760  0.38972375    -0.04700
N616        N  0.53504299  0.39642535  0.38615877    -0.57200
Mn617      Mn  0.56934810  0.03144824  0.39526352     1.20200
Mn618      Mn  0.96479853  0.42685367  0.39538504     1.10100
Cl619      Cl  0.99909720  0.49707341  0.43011511    -0.85200
C620        C  0.57967379  0.41669778  0.38384953     0.97100
C621        C  0.50142087  0.49475305  0.31974712     0.96900
N622        N  0.97062415  0.48737847  0.25099736    -0.05300
N623        N  0.96161630  0.46964581  0.27555842    -0.57500
N624        N  0.96975009  0.06440933  0.22051051    -0.05000
N625        N  0.96313212  0.09772030  0.22407707    -0.59600
N626        N  0.93162756  0.02626890  0.22055578    -0.04600
N627        N  0.89827473  0.03283190  0.22415347    -0.57400
N628        N  0.50872954  0.02550287  0.25095002    -0.04300
N629        N  0.52647327  0.03453523  0.27547568    -0.59900
C630        C  0.99675506  0.49939309  0.29048731     0.96800
C631        C  0.91850116  0.07744848  0.22638730     0.96600
N632        N  0.57004756  0.09416107  0.15217215    -0.05500
N633        N  0.58622277  0.12516487  0.13417591    -0.58000
N634        N  0.59614562  0.06808816  0.20787813    -0.03600
N635        N  0.62711546  0.08422502  0.22583952    -0.59300
N636        N  0.60910579  0.05495703  0.18234849    -0.05600
N637        N  0.64903027  0.06178915  0.18240829    -0.58300
N638        N  0.55686987  0.10707383  0.17770296    -0.03300
N639        N  0.56370477  0.14699330  0.17760835    -0.59400
Mn640      Mn  0.53337726  0.06729268  0.21484939     1.18400
C641        C  0.58148887  0.15755086  0.15029220     0.98900
C642        C  0.65953693  0.07952514  0.20970264     0.99600
N643        N  0.88905272  0.43918874  0.17789175    -0.05600
N644        N  0.84912866  0.43235535  0.17783254    -0.61900
N645        N  0.94128702  0.38707075  0.18253571    -0.04400
N646        N  0.93445034  0.34714938  0.18262915    -0.62600
N647        N  0.92811135  0.39998351  0.20806610    -0.05100
N648        N  0.91193455  0.36897809  0.22606263    -0.62200
N649        N  0.90201351  0.42605859  0.15236080    -0.04000
N650        N  0.87104288  0.40992138  0.13440063    -0.62800
Mn651      Mn  0.92882814  0.46269797  0.21497083     1.10700
C652        C  0.83862040  0.41461939  0.15053809     1.00100
C653        C  0.91666676  0.33659226  0.20994525     1.00200
N654        N  0.56653057  0.46787532  0.13968501    -0.05100
N655        N  0.59988338  0.46131255  0.13608968    -0.60500
N656        N  0.98943360  0.46864497  0.10928843    -0.04400
N657        N  0.97169478  0.45961111  0.08475912    -0.57200
N658        N  0.52753938  0.00676834  0.10924161    -0.05700
N659        N  0.53655360  0.02449914  0.08467993    -0.60000
N660        N  0.52840832  0.42973663  0.13972944    -0.04700
N661        N  0.53502544  0.39642403  0.13616455    -0.57200
Mn662      Mn  0.56933158  0.03144718  0.14526922     1.20200
Mn663      Mn  0.96478147  0.42685319  0.14538926     1.10100
Cl664      Cl  0.99907932  0.49707261  0.18011962    -0.85200
C665        C  0.57965571  0.41669582  0.13385626     0.97100
C666        C  0.50141768  0.49475189  0.06974834     0.96900
C667        C  0.61776805  0.23895322  0.13599568    -0.12500
C668        C  0.59968730  0.20087032  0.14120217    -0.14100
C669        C  0.79533993  0.39650418  0.14146897    -0.12500
C670        C  0.75730674  0.37849431  0.13622292    -0.12900
C671        C  0.62212457  0.37430684  0.12938319    -0.12500
C672        C  0.60280767  0.39359970  0.13075642    -0.14100
C673        C  0.61778739  0.23895667  0.38599398    -0.12500
C674        C  0.59970708  0.20087403  0.39120061    -0.14100
C675        C  0.75732595  0.37849841  0.38621810    -0.12500
C676        C  0.79535840  0.39650785  0.39146415    -0.14100
C677        C  0.62214299  0.37430891  0.37937706    -0.12500
C678        C  0.60282601  0.39360179  0.38074986    -0.14100
C679        C  0.87603163  0.11983774  0.23086414    -0.12500
C680        C  0.89534876  0.10054446  0.22948959    -0.14100
C681        C  0.88038842  0.25518998  0.22424309    -0.12500
C682        C  0.89846822  0.29327159  0.21903548    -0.14100
C683        C  0.74084960  0.11564838  0.22401992    -0.12500
C684        C  0.70281713  0.09763922  0.21877283    -0.14100
C685        C  0.89536965  0.10054749  0.47948520    -0.12500
C686        C  0.87605242  0.11984045  0.48085918    -0.14100
C687        C  0.89848863  0.29327428  0.46903164    -0.12500
C688        C  0.88040867  0.25519205  0.47423914    -0.14100
C689        C  0.70283815  0.09764072  0.46876463    -0.12500
C690        C  0.74087034  0.11564979  0.47401169    -0.14100
C691        C  0.85330812  0.14261453  0.48065188     0.81000
N692        N  0.80867129  0.11911751  0.47940900    -0.77300
C693        C  0.78750571  0.14036414  0.47750212     0.83400
N694        N  0.81109439  0.18494245  0.47639134    -0.77300
C695        C  0.85563860  0.20850591  0.47762502     0.83500
N696        N  0.87682828  0.18728427  0.47953074    -0.79000
C697        C  0.85328721  0.14261177  0.73065744     0.81000
N698        N  0.87680814  0.18728214  0.72953527    -0.77300
C699        C  0.85561792  0.20850325  0.72762998     0.83400
N700        N  0.81107403  0.18494077  0.72639771    -0.77300
C701        C  0.78748452  0.14036198  0.72750940     0.83500
N702        N  0.80865071  0.11911577  0.72941585    -0.79000
C703        C  0.64488709  0.35153485  0.87958394     0.81000
N704        N  0.68952427  0.37503123  0.88082499    -0.77300
C705        C  0.71069012  0.35378456  0.88272994     0.83400
N706        N  0.68710171  0.30920594  0.88384055    -0.77300
C707        C  0.64255708  0.28564317  0.88260883     0.83500
N708        N  0.62136700  0.30686472  0.88070499    -0.79000
C709        C  0.64486842  0.35153212  0.62958914     0.81000
N710        N  0.62134828  0.30686213  0.63070884    -0.77300
C711        C  0.64253802  0.28563963  0.63261160     0.83400
N712        N  0.68708267  0.30920237  0.63384382    -0.77300
C713        C  0.71067119  0.35378094  0.63273457     0.83500
N714        N  0.68950564  0.37502847  0.63083049    -0.79000
N715        N  0.97063931  0.48737731  0.50099248    -0.05300
N716        N  0.96162502  0.46964480  0.52555462    -0.57500
N717        N  0.96976893  0.06440987  0.97050699    -0.05000
N718        N  0.96315215  0.09772225  0.97407379    -0.59600
N719        N  0.93164712  0.02627067  0.97055133    -0.04600
N720        N  0.89829380  0.03283427  0.97414877    -0.57400
N721        N  0.50874515  0.02550031  0.50094638    -0.04300
N722        N  0.52648412  0.03453318  0.52547462    -0.59900
C723        C  0.99676159  0.49939184  0.54048564     0.96800
C724        C  0.91852155  0.07745046  0.97638326     0.96600
N725        N  0.57006511  0.09416277  0.90216806    -0.05500
N726        N  0.58624046  0.12516732  0.88417278    -0.58000
N727        N  0.59616396  0.06808693  0.95787270    -0.03600
N728        N  0.62713560  0.08422433  0.97583347    -0.59300
N729        N  0.60912413  0.05495759  0.93234249    -0.05600
N730        N  0.64904926  0.06179079  0.93240083    -0.58300
N731        N  0.55688910  0.10707542  0.92769999    -0.03300
N732        N  0.56372568  0.14699574  0.92760631    -0.59400
Mn733      Mn  0.53339595  0.06729245  0.96484574     1.18400
C734        C  0.58150874  0.15755408  0.90029020     0.98900
C735        C  0.65955693  0.07952609  0.95969527     0.99600
N736        N  0.88907103  0.43919016  0.92788682    -0.05600
N737        N  0.84914680  0.43235837  0.92782779    -0.61900
N738        N  0.94130575  0.38707130  0.93253092    -0.04400
N739        N  0.93447013  0.34715168  0.93262528    -0.62600
N740        N  0.92812868  0.39998434  0.95806221    -0.05100
N741        N  0.91195345  0.36898019  0.97605809    -0.62200
N742        N  0.90203097  0.42605920  0.90235712    -0.04000
N743        N  0.87106007  0.40992231  0.88439599    -0.62800
Mn744      Mn  0.92884563  0.46269876  0.96496588     1.10700
C745        C  0.83863952  0.41462246  0.90053343     1.00100
C746        C  0.91668632  0.33659372  0.95994149     1.00200
N747        N  0.56654780  0.46787658  0.88967840    -0.05100
N748        N  0.59990092  0.46131416  0.88608233    -0.60500
N749        N  0.98944660  0.46864401  0.85928460    -0.04400
N750        N  0.97170237  0.45961112  0.83475866    -0.57200
N751        N  0.52755124  0.00676752  0.85923746    -0.05700
N752        N  0.53655999  0.02450075  0.83467574    -0.60000
N753        N  0.52842568  0.42973762  0.88972384    -0.04700
N754        N  0.53504333  0.39642536  0.88615880    -0.57200
Mn755      Mn  0.56934812  0.03144823  0.89526351     1.20200
Mn756      Mn  0.96479856  0.42685365  0.89538500     1.10100
Cl757      Cl  0.99909733  0.49707344  0.93011506    -0.85200
C758        C  0.57967368  0.41669749  0.88384945     0.97100
C759        C  0.50142106  0.49475333  0.81974727     0.96900
N760        N  0.97062474  0.48737913  0.75099714    -0.05300
N761        N  0.96161607  0.46964552  0.77555874    -0.57500
N762        N  0.96974997  0.06440891  0.72051057    -0.05000
N763        N  0.96313194  0.09772051  0.72407716    -0.59600
N764        N  0.93162765  0.02626918  0.72055591    -0.04600
N765        N  0.89827461  0.03283176  0.72415344    -0.57400
N766        N  0.50872834  0.02550185  0.75094961    -0.04300
N767        N  0.52647378  0.03453540  0.77547623    -0.59900
C768        C  0.99675497  0.49939312  0.79048705     0.96800
C769        C  0.91850132  0.07744850  0.72638731     0.96600
N770        N  0.57004748  0.09416111  0.65217241    -0.05500
N771        N  0.58622273  0.12516481  0.63417588    -0.58000
N772        N  0.59614545  0.06808846  0.70787878    -0.03600
N773        N  0.62711537  0.08422485  0.72583929    -0.59300
N774        N  0.60910662  0.05495686  0.68234816    -0.05600
N775        N  0.64902947  0.06178894  0.68240821    -0.58300
N776        N  0.55686980  0.10707349  0.67770294    -0.03300
N777        N  0.56370497  0.14699367  0.67760838    -0.59400
Mn778      Mn  0.53337719  0.06729266  0.71484946     1.18400
C779        C  0.58148881  0.15755071  0.65029230     0.98900
C780        C  0.65953745  0.07952534  0.70970280     0.99600
N781        N  0.88905302  0.43918850  0.67789119    -0.05600
N782        N  0.84912831  0.43235532  0.67783262    -0.61900
N783        N  0.94128713  0.38707031  0.68253528    -0.04400
N784        N  0.93445023  0.34714970  0.68262915    -0.62600
N785        N  0.92811104  0.39998335  0.70806664    -0.05100
N786        N  0.91193478  0.36897855  0.72606237    -0.62200
N787        N  0.90201396  0.42605907  0.65236147    -0.04000
N788        N  0.87104220  0.40992112  0.63440026    -0.62800
Mn789      Mn  0.92882806  0.46269793  0.71497080     1.10700
C790        C  0.83862110  0.41461952  0.65053810     1.00100
C791        C  0.91666652  0.33659177  0.70994528     1.00200
N792        N  0.56652946  0.46787489  0.63968513    -0.05100
N793        N  0.59988394  0.46131238  0.63608958    -0.60500
N794        N  0.98943336  0.46864479  0.60928802    -0.04400
N795        N  0.97169503  0.45961110  0.58475931    -0.57200
N796        N  0.52753885  0.00676760  0.60924223    -0.05700
N797        N  0.53655356  0.02449942  0.58467941    -0.60000
N798        N  0.52840901  0.42973742  0.63972942    -0.04700
N799        N  0.53502544  0.39642364  0.63616436    -0.57200
Mn800      Mn  0.56933159  0.03144721  0.64526927     1.20200
Mn801      Mn  0.96478148  0.42685317  0.64538920     1.10100
Cl802      Cl  0.99907930  0.49707259  0.68011961    -0.85200
C803        C  0.57965556  0.41669620  0.63385624     0.97100
C804        C  0.50141777  0.49475199  0.56974824     0.96900
C805        C  0.61776802  0.23895313  0.63599577    -0.12500
C806        C  0.59968735  0.20087046  0.64120212    -0.14100
C807        C  0.79533958  0.39650403  0.64146895    -0.12500
C808        C  0.75730723  0.37849459  0.63622299    -0.12900
C809        C  0.62212455  0.37430672  0.62938306    -0.12500
C810        C  0.60280776  0.39359959  0.63075641    -0.14100
C811        C  0.61778738  0.23895659  0.88599394    -0.12500
C812        C  0.59970732  0.20087411  0.89120064    -0.14100
C813        C  0.75732611  0.37849851  0.88621816    -0.12500
C814        C  0.79535845  0.39650783  0.89146401    -0.14100
C815        C  0.62214303  0.37430883  0.87937695    -0.12500
C816        C  0.60282601  0.39360175  0.88074994    -0.14100
C817        C  0.87603170  0.11983776  0.73086407    -0.12500
C818        C  0.89534880  0.10054446  0.72948957    -0.14100
C819        C  0.88038839  0.25518986  0.72424318    -0.12500
C820        C  0.89846822  0.29327168  0.71903537    -0.14100
C821        C  0.74084956  0.11564844  0.72401999    -0.12500
C822        C  0.70281711  0.09763918  0.71877281    -0.14100
C823        C  0.89536944  0.10054769  0.97948523    -0.12500
C824        C  0.87605271  0.11984020  0.98085928    -0.14100
C825        C  0.89848869  0.29327431  0.96903166    -0.12500
C826        C  0.88040865  0.25519198  0.97423919    -0.14100
C827        C  0.70283815  0.09764069  0.96876461    -0.12500
C828        C  0.74087047  0.11564991  0.97401173    -0.14100
C829        C  0.85330763  0.64261435  0.98065203     0.81000
N830        N  0.80867164  0.61911758  0.97940907    -0.77300
C831        C  0.78750507  0.64036381  0.97750200     0.83400
N832        N  0.81109473  0.68494256  0.97639134    -0.77300
C833        C  0.85563811  0.70850570  0.97762495     0.83500
N834        N  0.87682853  0.68728427  0.97953081    -0.79000
C835        C  0.85328699  0.64261152  0.23065739     0.81000
N836        N  0.87680823  0.68728222  0.22953530    -0.77300
C837        C  0.85561770  0.70850296  0.22762995     0.83400
N838        N  0.81107422  0.68494089  0.22639765    -0.77300
C839        C  0.78748427  0.64036174  0.22750940     0.83500
N840        N  0.80865086  0.61911585  0.22941589    -0.79000
C841        C  0.64488737  0.85153449  0.37958398     0.81000
N842        N  0.68952394  0.87503139  0.38082498    -0.77300
C843        C  0.71069060  0.85378438  0.38272996     0.83400
N844        N  0.68710148  0.80920611  0.38384054    -0.77300
C845        C  0.64255757  0.78564290  0.38260886     0.83500
N846        N  0.62136684  0.80686506  0.38070505    -0.79000
C847        C  0.64486864  0.85153228  0.12958912     0.81000
N848        N  0.62134813  0.80686200  0.13070889    -0.77300
C849        C  0.64253828  0.78563977  0.13261169     0.83400
N850        N  0.68708246  0.80920213  0.13384375    -0.77300
C851        C  0.71067148  0.85378109  0.13273448     0.83500
N852        N  0.68950546  0.87502831  0.13083045    -0.79000
N853        N  0.97063902  0.98737688  0.00099260    -0.05300
N854        N  0.96162512  0.96964499  0.02555448    -0.57500
N855        N  0.96976895  0.56440977  0.47050703    -0.05000
N856        N  0.96315218  0.59772231  0.47407386    -0.59600
N857        N  0.93164691  0.52627075  0.47055140    -0.04600
N858        N  0.89829387  0.53283426  0.47414879    -0.57400
N859        N  0.50874471  0.52549993  0.00094625    -0.04300
N860        N  0.52648390  0.53453306  0.02547488    -0.59900
C861        C  0.99676124  0.99939149  0.04048596     0.96800
C862        C  0.91852154  0.57745069  0.47638325     0.96600
N863        N  0.57006469  0.59416239  0.40216859    -0.05500
N864        N  0.58624060  0.62516765  0.38417254    -0.58000
N865        N  0.59616395  0.56808710  0.45787325    -0.03600
N866        N  0.62713513  0.58422407  0.47583327    -0.59300
N867        N  0.60912470  0.55495739  0.43234213    -0.05600
N868        N  0.64904881  0.56179070  0.43240092    -0.58300
N869        N  0.55688927  0.60707525  0.42769965    -0.03300
N870        N  0.56372560  0.64699590  0.42760635    -0.59400
Mn871      Mn  0.53339589  0.56729238  0.46484577     1.18400
C872        C  0.58150875  0.65755377  0.40029014     0.98900
C873        C  0.65955727  0.57952623  0.45969545     0.99600
N874        N  0.88907085  0.93919024  0.42788707    -0.05600
N875        N  0.84914681  0.93235826  0.42782776    -0.61900
N876        N  0.94130577  0.88707192  0.43253105    -0.04400
N877        N  0.93447010  0.84715132  0.43262530    -0.62600
N878        N  0.92812864  0.89998402  0.45806200    -0.05100
N879        N  0.91195337  0.86898022  0.47605812    -0.62200
N880        N  0.90203067  0.92605896  0.40235690    -0.04000
N881        N  0.87106049  0.90992258  0.38439612    -0.62800
Mn882      Mn  0.92884562  0.96269880  0.46496587     1.10700
C883        C  0.83863907  0.91462234  0.40053344     1.00100
C884        C  0.91668651  0.83659390  0.45994126     1.00200
N885        N  0.56654808  0.96787697  0.38967847    -0.05100
N886        N  0.59990077  0.96131425  0.38608243    -0.60500
N887        N  0.98944737  0.96864468  0.35928487    -0.04400
N888        N  0.97170226  0.95961106  0.33475841    -0.57200
N889        N  0.52755143  0.50676777  0.35923718    -0.05700
N890        N  0.53655999  0.52450068  0.33467601    -0.60000
N891        N  0.52842550  0.92973718  0.38972378    -0.04700
N892        N  0.53504333  0.89642569  0.38615879    -0.57200
Mn893      Mn  0.56934807  0.53144819  0.39526354     1.20200
Mn894      Mn  0.96479849  0.92685363  0.39538507     1.10100
Cl895      Cl  0.99909727  0.99707350  0.43011514    -0.85200
C896        C  0.57967392  0.91669764  0.38384951     0.97100
C897        C  0.50142073  0.99475300  0.31974711     0.96900
N898        N  0.97062379  0.98737796  0.25099746    -0.05300
N899        N  0.96161635  0.96964584  0.27555819    -0.57500
N900        N  0.96974949  0.56440802  0.22051046    -0.05000
N901        N  0.96313195  0.59772098  0.22407715    -0.59600
N902        N  0.93162852  0.52626975  0.22055575    -0.04600
N903        N  0.89827424  0.53283186  0.22415348    -0.57400
N904        N  0.50872952  0.52550273  0.25095003    -0.04300
N905        N  0.52647347  0.53453535  0.27547571    -0.59900
C906        C  0.99675521  0.99939320  0.29048742     0.96800
C907        C  0.91850159  0.57744829  0.22638726     0.96600
N908        N  0.57004743  0.59416085  0.15217230    -0.05500
N909        N  0.58622274  0.62516489  0.13417582    -0.58000
N910        N  0.59614528  0.56808817  0.20787836    -0.03600
N911        N  0.62711552  0.58422497  0.22583939    -0.59300
N912        N  0.60910657  0.55495693  0.18234835    -0.05600
N913        N  0.64902970  0.56178902  0.18240816    -0.58300
N914        N  0.55686985  0.60707363  0.17770286    -0.03300
N915        N  0.56370485  0.64699333  0.17760838    -0.59400
Mn916      Mn  0.53337725  0.56729266  0.21484939     1.18400
C917        C  0.58148876  0.65755063  0.15029219     0.98900
C918        C  0.65953742  0.57952558  0.20970281     0.99600
N919        N  0.88905261  0.93918867  0.17789181    -0.05600
N920        N  0.84912865  0.93235525  0.17783256    -0.61900
N921        N  0.94128720  0.88707061  0.18253532    -0.04400
N922        N  0.93445017  0.84714938  0.18262923    -0.62600
N923        N  0.92811098  0.89998305  0.20806667    -0.05100
N924        N  0.91193479  0.86897850  0.22606240    -0.62200
N925        N  0.90201355  0.92605852  0.15236075    -0.04000
N926        N  0.87104287  0.90992148  0.13440063    -0.62800
Mn927      Mn  0.92882815  0.96269796  0.21497083     1.10700
C928        C  0.83862057  0.91461951  0.15053810     1.00100
C929        C  0.91666661  0.83659183  0.20994516     1.00200
N930        N  0.56653004  0.96787548  0.13968508    -0.05100
N931        N  0.59988362  0.96131234  0.13608965    -0.60500
N932        N  0.98943252  0.96864398  0.10928805    -0.04400
N933        N  0.97169517  0.95961123  0.08475957    -0.57200
N934        N  0.52753851  0.50676734  0.10924192    -0.05700
N935        N  0.53655379  0.52449956  0.08467955    -0.60000
N936        N  0.52840867  0.92973655  0.13972945    -0.04700
N937        N  0.53502523  0.89642405  0.13616458    -0.57200
Mn938      Mn  0.56933162  0.53144710  0.14526920     1.20200
Mn939      Mn  0.96478153  0.92685321  0.14538924     1.10100
Cl940      Cl  0.99907931  0.99707259  0.18011959    -0.85200
C941        C  0.57965594  0.91669614  0.13385626     0.97100
C942        C  0.50141791  0.99475221  0.06974789     0.96900
C943        C  0.61776787  0.73895298  0.13599570    -0.12500
C944        C  0.59968730  0.70087043  0.14120213    -0.14100
C945        C  0.79533976  0.89650403  0.14146900    -0.12500
C946        C  0.75730696  0.87849443  0.13622296    -0.12900
C947        C  0.62212454  0.87430673  0.12938320    -0.12500
C948        C  0.60280773  0.89359973  0.13075642    -0.14100
C949        C  0.61778735  0.73895678  0.38599398    -0.12500
C950        C  0.59970723  0.70087414  0.39120061    -0.14100
C951        C  0.75732576  0.87849843  0.38621805    -0.12500
C952        C  0.79535863  0.89650787  0.39146415    -0.14100
C953        C  0.62214282  0.87430889  0.37937706    -0.12500
C954        C  0.60282612  0.89360170  0.38074986    -0.14100
C955        C  0.87603175  0.61983772  0.23086414    -0.12500
C956        C  0.89534871  0.60054449  0.22948961    -0.14100
C957        C  0.88038848  0.75518993  0.22424311    -0.12500
C958        C  0.89846813  0.79327146  0.21903547    -0.14100
C959        C  0.74084982  0.61564849  0.22401996    -0.12500
C960        C  0.70281702  0.59763911  0.21877282    -0.14100
C961        C  0.89536956  0.60054740  0.47948520    -0.12500
C962        C  0.87605241  0.61984035  0.48085918    -0.14100
C963        C  0.89848874  0.79327416  0.46903165    -0.12500
C964        C  0.88040866  0.75519219  0.47423908    -0.14100
C965        C  0.70283796  0.59764055  0.46876460    -0.12500
C966        C  0.74087043  0.61564998  0.47401168    -0.14100
C967        C  0.85330784  0.64261413  0.48065189     0.81000
N968        N  0.80867147  0.61911769  0.47940901    -0.77300
C969        C  0.78750531  0.64036367  0.47750210     0.83400
N970        N  0.81109469  0.68494272  0.47639134    -0.77300
C971        C  0.85563815  0.70850549  0.47762504     0.83500
N972        N  0.87682847  0.68728449  0.47953074    -0.79000
C973        C  0.85328710  0.64261164  0.73065745     0.81000
N974        N  0.87680822  0.68728227  0.72953526    -0.77300
C975        C  0.85561779  0.70850300  0.72762998     0.83400
N976        N  0.81107410  0.68494080  0.72639772    -0.77300
C977        C  0.78748429  0.64036167  0.72750940     0.83500
N978        N  0.80865080  0.61911583  0.72941585    -0.79000
C979        C  0.64488733  0.85153458  0.87958396     0.81000
N980        N  0.68952407  0.87503137  0.88082498    -0.77300
C981        C  0.71069049  0.85378439  0.88272997     0.83400
N982        N  0.68710162  0.80920616  0.88384054    -0.77300
C983        C  0.64255743  0.78564293  0.88260887     0.83500
N984        N  0.62136691  0.80686496  0.88070499    -0.79000
C985        C  0.64486849  0.85153238  0.62958914     0.81000
N986        N  0.62134821  0.80686190  0.63070884    -0.77300
C987        C  0.64253802  0.78563984  0.63261159     0.83400
N988        N  0.68708254  0.80920214  0.63384384    -0.77300
C989        C  0.71067131  0.85378115  0.63273458     0.83500
N990        N  0.68950555  0.87502827  0.63083049    -0.79000
N991        N  0.97063899  0.98737696  0.50099255    -0.05300
N992        N  0.96162527  0.96964515  0.52555457    -0.57500
N993        N  0.96976857  0.56440910  0.97050697    -0.05000
N994        N  0.96315209  0.59772258  0.97407382    -0.59600
N995        N  0.93164764  0.52627115  0.97055133    -0.04600
N996        N  0.89829357  0.53283422  0.97414880    -0.57400
N997        N  0.50874492  0.52550007  0.50094631    -0.04300
N998        N  0.52648394  0.53453292  0.52547473    -0.59900
C999        C  0.99676092  0.99939122  0.54048580     0.96800
C1000       C  0.91852172  0.57745045  0.97638324     0.96600
N1001       N  0.57006499  0.59416244  0.90216822    -0.05500
N1002       N  0.58624061  0.62516747  0.88417272    -0.58000
N1003       N  0.59616394  0.56808686  0.95787283    -0.03600
N1004       N  0.62713545  0.58422421  0.97583343    -0.59300
N1005       N  0.60912429  0.55495746  0.93234246    -0.05600
N1006       N  0.64904907  0.56179066  0.93240083    -0.58300
N1007       N  0.55688916  0.60707547  0.92769988    -0.03300
N1008       N  0.56372554  0.64699552  0.92760635    -0.59400
Mn1009     Mn  0.53339593  0.56729239  0.96484574     1.18400
C1010       C  0.58150879  0.65755403  0.90029009     0.98900
C1011       C  0.65955713  0.57952614  0.95969534     0.99600
N1012       N  0.88907117  0.93919023  0.92788698    -0.05600
N1013       N  0.84914670  0.93235824  0.92782774    -0.61900
N1014       N  0.94130587  0.88707144  0.93253093    -0.04400
N1015       N  0.93447013  0.84715169  0.93262528    -0.62600
N1016       N  0.92812856  0.89998421  0.95806221    -0.05100
N1017       N  0.91195344  0.86898026  0.97605805    -0.62200
N1018       N  0.90203059  0.92605894  0.90235693    -0.04000
N1019       N  0.87106042  0.90992252  0.88439607    -0.62800
Mn1020     Mn  0.92884565  0.96269881  0.96496590     1.10700
C1021       C  0.83863930  0.91462246  0.90053350     1.00100
C1022       C  0.91668639  0.83659365  0.95994147     1.00200
N1023       N  0.56654814  0.96787707  0.88967838    -0.05100
N1024       N  0.59990076  0.96131418  0.88608232    -0.60500
N1025       N  0.98944714  0.96864458  0.85928475    -0.04400
N1026       N  0.97170219  0.95961101  0.83475846    -0.57200
N1027       N  0.52755181  0.50676803  0.85923723    -0.05700
N1028       N  0.53655986  0.52450051  0.83467602    -0.60000
N1029       N  0.52842556  0.92973707  0.88972377    -0.04700
N1030       N  0.53504327  0.89642581  0.88615883    -0.57200
Mn1031     Mn  0.56934812  0.53144819  0.89526353     1.20200
Mn1032     Mn  0.96479854  0.92685363  0.89538502     1.10100
Cl1033     Cl  0.99909739  0.99707354  0.93011508    -0.85200
C1034       C  0.57967399  0.91669764  0.88384945     0.97100
C1035       C  0.50142110  0.99475315  0.81974743     0.96900
N1036       N  0.97062472  0.98737904  0.75099712    -0.05300
N1037       N  0.96161608  0.96964545  0.77555868    -0.57500
N1038       N  0.96974945  0.56440792  0.72051052    -0.05000
N1039       N  0.96313192  0.59772097  0.72407720    -0.59600
N1040       N  0.93162855  0.52626978  0.72055587    -0.04600
N1041       N  0.89827423  0.53283185  0.72415348    -0.57400
N1042       N  0.50872827  0.52550175  0.75094966    -0.04300
N1043       N  0.52647382  0.53453557  0.77547619    -0.59900
C1044       C  0.99675486  0.99939304  0.79048694     0.96800
C1045       C  0.91850158  0.57744828  0.72638728     0.96600
N1046       N  0.57004717  0.59416072  0.65217255    -0.05500
N1047       N  0.58622273  0.62516496  0.63417581    -0.58000
N1048       N  0.59614544  0.56808851  0.70787890    -0.03600
N1049       N  0.62711521  0.58422483  0.72583921    -0.59300
N1050       N  0.60910677  0.55495680  0.68234807    -0.05600
N1051       N  0.64902926  0.56178892  0.68240818    -0.58300
N1052       N  0.55686978  0.60707354  0.67770283    -0.03300
N1053       N  0.56370482  0.64699352  0.67760842    -0.59400
Mn1054     Mn  0.53337721  0.56729266  0.71484945     1.18400
C1055       C  0.58148872  0.65755048  0.65029223     0.98900
C1056       C  0.65953774  0.57952564  0.70970282     0.99600
N1057       N  0.88905278  0.93918851  0.67789141    -0.05600
N1058       N  0.84912856  0.93235536  0.67783261    -0.61900
N1059       N  0.94128737  0.88707038  0.68253517    -0.04400
N1060       N  0.93445022  0.84714964  0.68262923    -0.62600
N1061       N  0.92811087  0.89998308  0.70806682    -0.05100
N1062       N  0.91193477  0.86897862  0.72606226    -0.62200
N1063       N  0.90201388  0.92605881  0.65236117    -0.04000
N1064       N  0.87104245  0.90992133  0.63440033    -0.62800
Mn1065     Mn  0.92882811  0.96269791  0.71497079     1.10700
C1066       C  0.83862083  0.91461951  0.65053803     1.00100
C1067       C  0.91666656  0.83659166  0.70994523     1.00200
N1068       N  0.56653052  0.96787546  0.63968506    -0.05100
N1069       N  0.59988349  0.96131266  0.63608965    -0.60500
N1070       N  0.98943340  0.96864481  0.60928791    -0.04400
N1071       N  0.97169487  0.95961093  0.58475944    -0.57200
N1072       N  0.52753866  0.50676739  0.60924217    -0.05700
N1073       N  0.53655381  0.52449963  0.58467944    -0.60000
N1074       N  0.52840845  0.92973669  0.63972938    -0.04700
N1075       N  0.53502556  0.89642413  0.63616439    -0.57200
Mn1076     Mn  0.56933155  0.53144713  0.64526927     1.20200
Mn1077     Mn  0.96478157  0.92685323  0.64538921     1.10100
Cl1078     Cl  0.99907929  0.99707256  0.68011959    -0.85200
C1079       C  0.57965590  0.91669602  0.63385620     0.97100
C1080       C  0.50141846  0.99475283  0.56974821     0.96900
C1081       C  0.61776787  0.73895292  0.63599579    -0.12500
C1082       C  0.59968728  0.70087053  0.64120210    -0.14100
C1083       C  0.79533971  0.89650405  0.64146895    -0.12500
C1084       C  0.75730709  0.87849448  0.63622296    -0.12900
C1085       C  0.62212468  0.87430667  0.62938306    -0.12500
C1086       C  0.60280768  0.89359975  0.63075642    -0.14100
C1087       C  0.61778751  0.73895676  0.88599395    -0.12500
C1088       C  0.59970719  0.70087404  0.89120066    -0.14100
C1089       C  0.75732593  0.87849841  0.88621811    -0.12500
C1090       C  0.79535865  0.89650784  0.89146401    -0.14100
C1091       C  0.62214300  0.87430888  0.87937696    -0.12500
C1092       C  0.60282610  0.89360179  0.88074995    -0.14100
C1093       C  0.87603169  0.61983778  0.73086407    -0.12500
C1094       C  0.89534859  0.60054446  0.72948958    -0.14100
C1095       C  0.88038834  0.75518983  0.72424319    -0.12500
C1096       C  0.89846809  0.79327149  0.71903538    -0.14100
C1097       C  0.74084970  0.61564844  0.72402001    -0.12500
C1098       C  0.70281680  0.59763902  0.71877281    -0.14100
C1099       C  0.89536940  0.60054746  0.97948523    -0.12500
C1100       C  0.87605250  0.61984030  0.98085928    -0.14100
C1101       C  0.89848874  0.79327426  0.96903161    -0.12500
C1102       C  0.88040863  0.75519189  0.97423916    -0.14100
C1103       C  0.70283785  0.59764054  0.96876460    -0.12500
C1104       C  0.74087057  0.61564997  0.97401172    -0.14100
loop_ 
_geom_bond_atom_site_label_1 
_geom_bond_atom_site_label_2 
_geom_bond_distance 
_geom_bond_site_symmetry_2 
_ccdc_geom_bond_type 
C1            N2   1.359       .  A
C1            N6   1.359       .  A
C1          C272   1.438       .  S
N2            C3   1.358       .  A
C3            N4   1.356       .  A
C3          C276   1.438       .  S
N4            C5   1.356       .  A
C5            N6   1.358       .  A
C5          C274   1.438       .  S
C7            N8   1.359       .  A
C7           N12   1.359       .  A
C7          C127   1.438       .  S
N8            C9   1.358       .  A
C9           N10   1.356       .  A
C9          C129   1.438       .  S
N10          C11   1.356       .  A
C11          N12   1.358       .  A
C11         C131   1.438       .  S
C13          N14   1.359       .  A
C13          N18   1.359       .  A
C13         C125   1.438       .  S
N14          C15   1.358       .  A
C15          N16   1.356       .  A
C15         C123   1.438       .  S
N16          C17   1.356       .  A
C17          N18   1.358       .  A
C17         C121   1.438       .  S
C19          N20   1.359       .  A
C19          N24   1.359       .  A
C19         C119   1.438       .  S
N20          C21   1.358       .  A
C21          N22   1.356       .  A
C21         C115   1.438       .  S
N22          C23   1.356       .  A
C23          N24   1.358       .  A
C23         C118   1.438       .  S
N25          N26   1.320       .  A
N25         N859   1.316       .  A
N25        Mn192   2.199   1_554  S
N26          C33   1.351       .  A
N27          N29   1.317       .  A
N27          N28   1.321       .  A
N27        Mn595   2.205       .  S
N28          C34   1.351       .  A
N29          N30   1.321       .  A
N29        Mn330   2.205   1_545  S
N30          C34   1.351       .  A
N31          N32   1.320       .  A
N31         N853   1.316   1_445  A
N31        Mn181   2.199   1_554  S
N32         C861   1.351   1_445  A
C33         N860   1.351       .  A
C33         C666   1.460       .  S
C34         C133   1.438       .  S
N35          N41   1.316       .  A
N35          N36   1.322       .  A
N35         Mn65   2.210       .  S
N36          C44   1.353       .  A
N37          N38   1.322       .  A
N37          N39   1.317       .  A
N37         Mn43   2.210       .  S
N38          C45   1.353       .  A
N39          N40   1.320       .  A
N39         Mn65   2.201       .  S
N40          C45   1.350       .  A
N41          N42   1.320       .  A
N41         Mn43   2.201       .  S
N42          C44   1.350       .  A
Mn43        N579   2.205   1_455  S
Mn43        N169   2.199       .  S
Mn43       Cl895   2.549   1_445  S
C44         C122   1.438       .  S
C45         C137   1.438       .  S
N46          N47   1.320       .  A
N46          N52   1.316       .  A
N46         Mn54   2.201       .  S
N47          C55   1.350       .  A
N48          N50   1.317       .  A
N48          N49   1.320       .  A
N48         Mn66   2.201       .  S
N49          C56   1.350       .  A
N50          N51   1.322       .  A
N50         Mn54   2.210       .  S
N51          C56   1.353       .  A
N52          N53   1.322       .  A
N52         Mn66   2.210       .  S
N53          C55   1.353       .  A
Mn54        N163   2.199       .  S
Mn54        N305   2.205       .  S
Mn54        Cl67   2.549       .  S
C55         C124   1.438       .  S
C56         C135   1.438       .  S
N57          N58   1.321       .  A
N57          N63   1.317       .  A
N57        Mn341   2.205       .  S
N58          C68   1.351       .  A
N59          N60   1.320       .  A
N59         N889   1.316       .  A
N59         Mn66   2.199       .  S
N60         C621   1.351       .  A
N61          N62   1.320       .  A
N61         N887   1.316   1_445  A
N61         Mn65   2.199       .  S
N62         C345   1.351   1_545  A
N63          N64   1.321       .  A
N63        Mn618   2.205   1_455  S
N64          C68   1.351       .  A
Mn65        N333   2.205   1_545  S
Mn65       Cl895   2.549   1_445  S
Mn66        N615   2.205       .  S
Mn66        Cl67   2.549       .  S
Cl67       Mn871   2.549       .  S
Cl67       Mn893   2.549       .  S
C68         C126   1.438       .  S
C69         N612   1.351   1_455  A
C69         N338   1.351       .  A
C69         C630   1.460   1_455  S
N70          N71   1.320       .  A
N70         N904   1.316       .  A
N70         Mn99   2.199       .  S
N71          C78   1.351       .  A
N72          N74   1.317       .  A
N72          N73   1.321       .  A
N72        Mn640   2.205       .  S
N73          C79   1.351       .  A
N74          N75   1.321       .  A
N74        Mn375   2.205   1_545  S
N75          C79   1.351       .  A
N76          N77   1.320       .  A
N76         N898   1.316   1_445  A
N76         Mn88   2.199       .  S
N77         C906   1.351   1_445  A
C78         N905   1.351       .  A
C78         C621   1.460       .  S
C79         C128   1.438       .  S
N80          N86   1.317       .  A
N80          N81   1.322       .  A
N80        Mn110   2.210       .  S
N81          C89   1.353       .  A
N82          N83   1.322       .  A
N82          N84   1.316       .  A
N82         Mn88   2.210       .  S
N83          C90   1.353       .  A
N84          N85   1.320       .  A
N84        Mn110   2.201       .  S
N85          C90   1.350       .  A
N86          N87   1.320       .  A
N86         Mn88   2.201       .  S
N87          C89   1.350       .  A
Mn88        N624   2.205   1_455  S
Mn88       Cl940   2.549   1_445  S
C89         C116   1.438       .  S
C90         C132   1.438       .  S
N91          N92   1.320       .  A
N91          N97   1.316       .  A
N91         Mn99   2.201       .  S
N92         C100   1.350       .  A
N93          N95   1.316       .  A
N93          N94   1.320       .  A
N93        Mn111   2.201       .  S
N94         C101   1.350       .  A
N95          N96   1.322       .  A
N95         Mn99   2.210       .  S
N96         C101   1.353       .  A
N97          N98   1.322       .  A
N97        Mn111   2.210       .  S
N98         C100   1.353       .  A
Mn99        N350   2.205       .  S
Mn99       Cl112   2.549       .  S
C100        C117   1.438       .  S
C101        C130   1.438       .  S
N102        N103   1.321       .  A
N102        N108   1.317       .  A
N102       Mn386   2.205       .  S
N103        C113   1.351       .  A
N104        N105   1.320       .  A
N104        N934   1.316       .  A
N104       Mn111   2.199       .  S
N105        C666   1.351       .  A
N106        N107   1.320       .  A
N106        N932   1.316   1_445  A
N106       Mn110   2.199       .  S
N107        C390   1.351   1_545  A
N108        N109   1.321       .  A
N108       Mn663   2.205   1_455  S
N109        C113   1.351       .  A
Mn110       N378   2.205   1_545  S
Mn110      Cl940   2.549   1_445  S
Mn111       N660   2.205       .  S
Mn111      Cl112   2.549       .  S
Cl112      Mn916   2.549       .  S
Cl112      Mn938   2.549       .  S
C113        C120   1.438       .  S
C114        N657   1.351   1_455  A
C114        N383   1.351       .  A
C114        C585   1.460   1_455  S
C115        C116   1.207       .  T
C117        C118   1.207       .  T
C119        C120   1.207       .  T
C121        C122   1.207       .  T
C123        C124   1.207       .  T
C125        C126   1.207       .  T
C127        C128   1.207       .  T
C129        C130   1.207       .  T
C131        C132   1.207       .  T
C133        C134   1.207       .  T
C134        C139   1.438       .  S
C135        C136   1.207       .  T
C136        C143   1.438       .  S
C137        C138   1.207       .  T
C138        C141   1.438       .  S
C139        N140   1.359       .  A
C139        N144   1.359       .  A
N140        C141   1.358       .  A
C141        N142   1.356       .  A
N142        C143   1.356       .  A
C143        N144   1.358       .  A
C145        N146   1.359       .  A
C145        N150   1.359       .  A
C145        C265   1.438       .  S
N146        C147   1.358       .  A
C147        N148   1.356       .  A
C147        C267   1.438       .  S
N148        C149   1.356       .  A
C149        N150   1.358       .  A
C149        C269   1.438       .  S
C151        N152   1.359       .  A
C151        N156   1.359       .  A
C151        C263   1.438       .  S
N152        C153   1.358       .  A
C153        N154   1.356       .  A
C153        C261   1.438       .  S
N154        C155   1.356       .  A
C155        N156   1.358       .  A
C155        C259   1.438       .  S
C157        N158   1.359       .  A
C157        N162   1.359       .  A
C157        C257   1.438       .  S
N158        C159   1.358       .  A
C159        N160   1.356       .  A
C159        C253   1.438       .  S
N160        C161   1.356       .  A
C161        N162   1.358       .  A
C161        C256   1.438       .  S
N163        N164   1.320       .  A
N163        N997   1.316       .  A
N164        C171   1.351       .  A
N165        N167   1.317       .  A
N165        N166   1.321       .  A
N165       Mn733   2.205       .  S
N166        C172   1.351       .  A
N167        N168   1.321       .  A
N167       Mn468   2.205   1_545  S
N168        C172   1.351       .  A
N169        N991   1.316   1_445  A
N169        N170   1.320       .  A
N170        C999   1.351   1_445  A
C171        N998   1.351       .  A
C171        C804   1.460       .  S
C172        C271   1.438       .  S
N173        N179   1.317       .  A
N173        N174   1.322       .  A
N173       Mn203   2.210       .  S
N174        C182   1.353       .  A
N175        N176   1.322       .  A
N175        N177   1.316       .  A
N175       Mn181   2.210       .  S
N176        C183   1.353       .  A
N177        N178   1.320       .  A
N177       Mn203   2.201       .  S
N178        C183   1.350       .  A
N179        N180   1.320       .  A
N179       Mn181   2.201       .  S
N180        C182   1.350       .  A
Mn181       N717   2.205   1_455  S
Mn181     Cl1033   2.549   1_445  S
C182        C260   1.438       .  S
C183        C275   1.438       .  S
N184        N185   1.320       .  A
N184        N190   1.316       .  A
N184       Mn192   2.201       .  S
N185        C193   1.350       .  A
N186        N188   1.317       .  A
N186        N187   1.320       .  A
N186       Mn204   2.201       .  S
N187        C194   1.350       .  A
N188        N189   1.322       .  A
N188       Mn192   2.210       .  S
N189        C194   1.353       .  A
N190        N191   1.322       .  A
N190       Mn204   2.210       .  S
N191        C193   1.353       .  A
Mn192       N443   2.205       .  S
Mn192      Cl205   2.549       .  S
C193        C262   1.438       .  S
C194        C273   1.438       .  S
N195        N196   1.321       .  A
N195        N201   1.317       .  A
N195       Mn479   2.205       .  S
N196        C206   1.351       .  A
N197        N198   1.320       .  A
N197       N1027   1.316       .  A
N197       Mn204   2.199       .  S
N198        C759   1.351       .  A
N199       N1025   1.316   1_445  A
N199        N200   1.320       .  A
N199       Mn203   2.199       .  S
N200        C483   1.351   1_545  A
N201        N202   1.321       .  A
N201       Mn756   2.205   1_455  S
N202        C206   1.351       .  A
Mn203       N471   2.205   1_545  S
Mn203     Cl1033   2.549   1_445  S
Mn204       N753   2.205       .  S
Mn204      Cl205   2.549       .  S
Cl205     Mn1009   2.549       .  S
Cl205     Mn1031   2.549       .  S
C206        C264   1.438       .  S
C207        N750   1.351   1_455  A
C207        N476   1.351       .  A
C207        C768   1.460   1_455  S
N208        N209   1.320       .  A
N208       N1042   1.316       .  A
N208       Mn237   2.199       .  S
N209        C216   1.351       .  A
N210        N212   1.317       .  A
N210        N211   1.321       .  A
N210       Mn778   2.205       .  S
N211        C217   1.351       .  A
N212        N213   1.321       .  A
N212       Mn513   2.205   1_545  S
N213        C217   1.351       .  A
N214       N1036   1.316   1_445  A
N214        N215   1.320       .  A
N214       Mn226   2.199       .  S
N215       C1044   1.351   1_445  A
C216       N1043   1.351       .  A
C216        C759   1.460       .  S
C217        C266   1.438       .  S
N218        N224   1.316       .  A
N218        N219   1.322       .  A
N218       Mn248   2.210       .  S
N219        C227   1.353       .  A
N220        N221   1.322       .  A
N220        N222   1.317       .  A
N220       Mn226   2.210       .  S
N221        C228   1.353       .  A
N222        N223   1.320       .  A
N222       Mn248   2.201       .  S
N223        C228   1.350       .  A
N224        N225   1.320       .  A
N224       Mn226   2.201       .  S
N225        C227   1.350       .  A
Mn226       N762   2.205   1_455  S
Mn226     Cl1078   2.549   1_445  S
C227        C254   1.438       .  S
C228        C270   1.438       .  S
N229        N230   1.320       .  A
N229        N235   1.316       .  A
N229       Mn237   2.201       .  S
N230        C238   1.350       .  A
N231        N233   1.316       .  A
N231        N232   1.320       .  A
N231       Mn249   2.201       .  S
N232        C239   1.350       .  A
N233        N234   1.322       .  A
N233       Mn237   2.210       .  S
N234        C239   1.353       .  A
N235        N236   1.322       .  A
N235       Mn249   2.210       .  S
N236        C238   1.353       .  A
Mn237       N488   2.205       .  S
Mn237      Cl250   2.549       .  S
C238        C255   1.438       .  S
C239        C268   1.438       .  S
N240        N241   1.321       .  A
N240        N246   1.317       .  A
N240       Mn524   2.205       .  S
N241        C251   1.351       .  A
N242        N243   1.320       .  A
N242       N1072   1.316       .  A
N242       Mn249   2.199       .  S
N243        C804   1.351       .  A
N244       N1070   1.316   1_445  A
N244        N245   1.320       .  A
N244       Mn248   2.199       .  S
N245        C528   1.351   1_545  A
N246        N247   1.321       .  A
N246       Mn801   2.205   1_455  S
N247        C251   1.351       .  A
Mn248       N516   2.205   1_545  S
Mn248     Cl1078   2.549   1_445  S
Mn249       N798   2.205       .  S
Mn249      Cl250   2.549       .  S
Cl250     Mn1054   2.549       .  S
Cl250     Mn1076   2.549       .  S
C251        C258   1.438       .  S
C252        N795   1.351   1_455  A
C252        N521   1.351       .  A
C252        C723   1.460   1_455  S
C253        C254   1.207       .  T
C255        C256   1.207       .  T
C257        C258   1.207       .  T
C259        C260   1.207       .  T
C261        C262   1.207       .  T
C263        C264   1.207       .  T
C265        C266   1.207       .  T
C267        C268   1.207       .  T
C269        C270   1.207       .  T
C271        C272   1.207       .  T
C273        C274   1.207       .  T
C275        C276   1.207       .  T
C277        N278   1.359       .  A
C277        N282   1.359       .  A
C277        C548   1.438       .  S
N278        C279   1.358       .  A
C279        N280   1.356       .  A
C279        C552   1.438       .  S
N280        C281   1.356       .  A
C281        N282   1.358       .  A
C281        C550   1.438       .  S
C283        N284   1.359       .  A
C283        N288   1.359       .  A
C283        C403   1.438       .  S
N284        C285   1.358       .  A
C285        N286   1.356       .  A
C285        C405   1.438       .  S
N286        C287   1.356       .  A
C287        N288   1.358       .  A
C287        C407   1.438       .  S
C289        N290   1.359       .  A
C289        N294   1.359       .  A
C289        C401   1.438       .  S
N290        C291   1.358       .  A
C291        N292   1.356       .  A
C291        C399   1.438       .  S
N292        C293   1.356       .  A
C293        N294   1.358       .  A
C293        C397   1.438       .  S
C295        N296   1.359       .  A
C295        N300   1.359       .  A
C295        C395   1.438       .  S
N296        C297   1.358       .  A
C297        N298   1.356       .  A
C297        C391   1.438       .  S
N298        C299   1.356       .  A
C299        N300   1.358       .  A
C299        C394   1.438       .  S
N301        N302   1.320       .  A
N301        N583   1.316   1_565  A
N301       Mn468   2.199   1_554  S
N302        C309   1.351       .  A
N303        N305   1.317       .  A
N303        N304   1.321       .  A
N303       Mn871   2.205       .  S
N304        C310   1.351       .  A
N305        N306   1.321       .  A
N306        C310   1.351       .  A
N307        N577   1.316   1_455  A
N307        N308   1.320       .  A
N307       Mn457   2.199   1_554  S
N308        C585   1.351   1_455  A
C309        N584   1.351   1_565  A
C309        C942   1.460       .  S
C310        C409   1.438       .  S
N311        N317   1.316       .  A
N311        N312   1.322       .  A
N311       Mn341   2.210       .  S
N312        C320   1.353       .  A
N313        N314   1.322       .  A
N313        N315   1.317       .  A
N313       Mn319   2.210       .  S
N314        C321   1.353       .  A
N315        N316   1.320       .  A
N315       Mn341   2.201       .  S
N316        C321   1.350       .  A
N317        N318   1.320       .  A
N317       Mn319   2.201       .  S
N318        C320   1.350       .  A
Mn319       N855   2.205   1_455  S
Mn319       N445   2.199       .  S
Mn319      Cl619   2.549   1_455  S
C320        C398   1.438       .  S
C321        C413   1.438       .  S
N322        N323   1.320       .  A
N322        N328   1.316       .  A
N322       Mn330   2.201       .  S
N323        C331   1.350       .  A
N324        N326   1.316       .  A
N324        N325   1.320       .  A
N324       Mn342   2.201       .  S
N325        C332   1.350       .  A
N326        N327   1.322       .  A
N326       Mn330   2.210       .  S
N327        C332   1.353       .  A
N328        N329   1.322       .  A
N328       Mn342   2.210       .  S
N329        C331   1.353       .  A
Mn330       N439   2.199       .  S
Mn330      Cl343   2.549       .  S
C331        C400   1.438       .  S
C332        C411   1.438       .  S
N333        N334   1.321       .  A
N333        N339   1.317       .  A
N334        C344   1.351       .  A
N335        N336   1.320       .  A
N335        N613   1.316   1_565  A
N335       Mn342   2.199       .  S
N336        C897   1.351       .  A
N337        N611   1.316   1_455  A
N337        N338   1.320       .  A
N337       Mn341   2.199       .  S
N339        N340   1.321       .  A
N339       Mn894   2.205   1_455  S
N340        C344   1.351       .  A
Mn341      Cl619   2.549   1_455  S
Mn342       N891   2.205       .  S
Mn342      Cl343   2.549       .  S
Cl343      Mn595   2.549   1_565  S
Cl343      Mn617   2.549   1_565  S
C344        C402   1.438       .  S
C345        N888   1.351   1_455  A
C345        C906   1.460   1_455  S
N346        N347   1.320       .  A
N346        N628   1.316   1_565  A
N346       Mn375   2.199       .  S
N347        C354   1.351       .  A
N348        N350   1.317       .  A
N348        N349   1.321       .  A
N348       Mn916   2.205       .  S
N349        C355   1.351       .  A
N350        N351   1.321       .  A
N351        C355   1.351       .  A
N352        N622   1.316   1_455  A
N352        N353   1.320       .  A
N352       Mn364   2.199       .  S
N353        C630   1.351   1_455  A
C354        N629   1.351   1_565  A
C354        C897   1.460       .  S
C355        C404   1.438       .  S
N356        N362   1.316       .  A
N356        N357   1.322       .  A
N356       Mn386   2.210       .  S
N357        C365   1.353       .  A
N358        N359   1.322       .  A
N358        N360   1.316       .  A
N358       Mn364   2.210       .  S
N359        C366   1.353       .  A
N360        N361   1.320       .  A
N360       Mn386   2.201       .  S
N361        C366   1.350       .  A
N362        N363   1.320       .  A
N362       Mn364   2.201       .  S
N363        C365   1.350       .  A
Mn364       N900   2.205   1_455  S
Mn364      Cl664   2.549   1_455  S
C365        C392   1.438       .  S
C366        C408   1.438       .  S
N367        N368   1.320       .  A
N367        N373   1.317       .  A
N367       Mn375   2.201       .  S
N368        C376   1.350       .  A
N369        N371   1.316       .  A
N369        N370   1.320       .  A
N369       Mn387   2.201       .  S
N370        C377   1.350       .  A
N371        N372   1.322       .  A
N371       Mn375   2.210       .  S
N372        C377   1.353       .  A
N373        N374   1.322       .  A
N373       Mn387   2.210       .  S
N374        C376   1.353       .  A
Mn375      Cl388   2.549       .  S
C376        C393   1.438       .  S
C377        C406   1.438       .  S
N378        N379   1.321       .  A
N378        N384   1.317       .  A
N379        C389   1.351       .  A
N380        N381   1.320       .  A
N380        N658   1.316   1_565  A
N380       Mn387   2.199       .  S
N381        C942   1.351       .  A
N382        N656   1.316   1_455  A
N382        N383   1.320       .  A
N382       Mn386   2.199       .  S
N384        N385   1.321       .  A
N384       Mn939   2.205   1_455  S
N385        C389   1.351       .  A
Mn386      Cl664   2.549   1_455  S
Mn387       N936   2.205       .  S
Mn387      Cl388   2.549       .  S
Cl388      Mn640   2.549   1_565  S
Cl388      Mn662   2.549   1_565  S
C389        C396   1.438       .  S
C390        N933   1.351   1_455  A
C390        C861   1.460   1_455  S
C391        C392   1.207       .  T
C393        C394   1.207       .  T
C395        C396   1.207       .  T
C397        C398   1.207       .  T
C399        C400   1.207       .  T
C401        C402   1.207       .  T
C403        C404   1.207       .  T
C405        C406   1.207       .  T
C407        C408   1.207       .  T
C409        C410   1.207       .  T
C410        C415   1.438       .  S
C411        C412   1.207       .  T
C412        C419   1.438       .  S
C413        C414   1.207       .  T
C414        C417   1.438       .  S
C415        N416   1.359       .  A
C415        N420   1.359       .  A
N416        C417   1.358       .  A
C417        N418   1.356       .  A
N418        C419   1.356       .  A
C419        N420   1.358       .  A
C421        N422   1.359       .  A
C421        N426   1.359       .  A
C421        C541   1.438       .  S
N422        C423   1.358       .  A
C423        N424   1.356       .  A
C423        C543   1.438       .  S
N424        C425   1.356       .  A
C425        N426   1.358       .  A
C425        C545   1.438       .  S
C427        N428   1.359       .  A
C427        N432   1.359       .  A
C427        C539   1.438       .  S
N428        C429   1.358       .  A
C429        N430   1.356       .  A
C429        C537   1.438       .  S
N430        C431   1.356       .  A
C431        N432   1.358       .  A
C431        C535   1.438       .  S
C433        N434   1.359       .  A
C433        N438   1.359       .  A
C433        C533   1.438       .  S
N434        C435   1.358       .  A
C435        N436   1.356       .  A
C435        C529   1.438       .  S
N436        C437   1.356       .  A
C437        N438   1.358       .  A
C437        C532   1.438       .  S
N439        N440   1.320       .  A
N439        N721   1.316   1_565  A
N440        C447   1.351       .  A
N441        N443   1.317       .  A
N441        N442   1.321       .  A
N441      Mn1009   2.205       .  S
N442        C448   1.351       .  A
N443        N444   1.321       .  A
N444        C448   1.351       .  A
N445        N715   1.316   1_455  A
N445        N446   1.320       .  A
N446        C723   1.351   1_455  A
C447        N722   1.351   1_565  A
C447       C1080   1.460       .  S
C448        C547   1.438       .  S
N449        N455   1.317       .  A
N449        N450   1.322       .  A
N449       Mn479   2.210       .  S
N450        C458   1.353       .  A
N451        N452   1.322       .  A
N451        N453   1.316       .  A
N451       Mn457   2.210       .  S
N452        C459   1.353       .  A
N453        N454   1.320       .  A
N453       Mn479   2.201       .  S
N454        C459   1.350       .  A
N455        N456   1.320       .  A
N455       Mn457   2.201       .  S
N456        C458   1.350       .  A
Mn457       N993   2.205   1_455  S
Mn457      Cl757   2.549   1_455  S
C458        C536   1.438       .  S
C459        C551   1.438       .  S
N460        N461   1.320       .  A
N460        N466   1.317       .  A
N460       Mn468   2.201       .  S
N461        C469   1.350       .  A
N462        N464   1.316       .  A
N462        N463   1.320       .  A
N462       Mn480   2.201       .  S
N463        C470   1.350       .  A
N464        N465   1.322       .  A
N464       Mn468   2.210       .  S
N465        C470   1.353       .  A
N466        N467   1.322       .  A
N466       Mn480   2.210       .  S
N467        C469   1.353       .  A
Mn468      Cl481   2.549       .  S
C469        C538   1.438       .  S
C470        C549   1.438       .  S
N471        N472   1.321       .  A
N471        N477   1.317       .  A
N472        C482   1.351       .  A
N473        N474   1.320       .  A
N473        N751   1.316   1_565  A
N473       Mn480   2.199       .  S
N474       C1035   1.351       .  A
N475        N749   1.316   1_455  A
N475        N476   1.320       .  A
N475       Mn479   2.199       .  S
N477        N478   1.321       .  A
N477      Mn1032   2.205   1_455  S
N478        C482   1.351       .  A
Mn479      Cl757   2.549   1_455  S
Mn480      N1029   2.205       .  S
Mn480      Cl481   2.549       .  S
Cl481      Mn733   2.549   1_565  S
Cl481      Mn755   2.549   1_565  S
C482        C540   1.438       .  S
C483       N1026   1.351   1_455  A
C483       C1044   1.460   1_455  S
N484        N485   1.320       .  A
N484        N766   1.316   1_565  A
N484       Mn513   2.199       .  S
N485        C492   1.351       .  A
N486        N488   1.317       .  A
N486        N487   1.321       .  A
N486      Mn1054   2.205       .  S
N487        C493   1.351       .  A
N488        N489   1.321       .  A
N489        C493   1.351       .  A
N490        N760   1.316   1_455  A
N490        N491   1.320       .  A
N490       Mn502   2.199       .  S
N491        C768   1.351   1_455  A
C492        N767   1.351   1_565  A
C492       C1035   1.460       .  S
C493        C542   1.438       .  S
N494        N500   1.316       .  A
N494        N495   1.322       .  A
N494       Mn524   2.210       .  S
N495        C503   1.353       .  A
N496        N497   1.322       .  A
N496        N498   1.317       .  A
N496       Mn502   2.210       .  S
N497        C504   1.353       .  A
N498        N499   1.320       .  A
N498       Mn524   2.201       .  S
N499        C504   1.350       .  A
N500        N501   1.320       .  A
N500       Mn502   2.201       .  S
N501        C503   1.350       .  A
Mn502      N1038   2.205   1_455  S
Mn502      Cl802   2.549   1_455  S
C503        C530   1.438       .  S
C504        C546   1.438       .  S
N505        N506   1.320       .  A
N505        N511   1.316       .  A
N505       Mn513   2.201       .  S
N506        C514   1.350       .  A
N507        N509   1.316       .  A
N507        N508   1.320       .  A
N507       Mn525   2.201       .  S
N508        C515   1.350       .  A
N509        N510   1.322       .  A
N509       Mn513   2.210       .  S
N510        C515   1.353       .  A
N511        N512   1.322       .  A
N511       Mn525   2.210       .  S
N512        C514   1.353       .  A
Mn513      Cl526   2.549       .  S
C514        C531   1.438       .  S
C515        C544   1.438       .  S
N516        N517   1.321       .  A
N516        N522   1.317       .  A
N517        C527   1.351       .  A
N518        N519   1.320       .  A
N518        N796   1.316   1_565  A
N518       Mn525   2.199       .  S
N519       C1080   1.351       .  A
N520        N794   1.316   1_455  A
N520        N521   1.320       .  A
N520       Mn524   2.199       .  S
N522        N523   1.321       .  A
N522      Mn1077   2.205   1_455  S
N523        C527   1.351       .  A
Mn524      Cl802   2.549   1_455  S
Mn525      N1074   2.205       .  S
Mn525      Cl526   2.549       .  S
Cl526      Mn778   2.549   1_565  S
Cl526      Mn800   2.549   1_565  S
C527        C534   1.438       .  S
C528       N1071   1.351   1_455  A
C528        C999   1.460   1_455  S
C529        C530   1.207       .  T
C531        C532   1.207       .  T
C533        C534   1.207       .  T
C535        C536   1.207       .  T
C537        C538   1.207       .  T
C539        C540   1.207       .  T
C541        C542   1.207       .  T
C543        C544   1.207       .  T
C545        C546   1.207       .  T
C547        C548   1.207       .  T
C549        C550   1.207       .  T
C551        C552   1.207       .  T
C553        N554   1.359       .  A
C553        N558   1.359       .  A
C553        C824   1.438       .  S
N554        C555   1.358       .  A
C555        N556   1.356       .  A
C555        C828   1.438       .  S
N556        C557   1.356       .  A
C557        N558   1.358       .  A
C557        C826   1.438       .  S
C559        N560   1.359       .  A
C559        N564   1.359       .  A
C559        C679   1.438       .  S
N560        C561   1.358       .  A
C561        N562   1.356       .  A
C561        C681   1.438       .  S
N562        C563   1.356       .  A
C563        N564   1.358       .  A
C563        C683   1.438       .  S
C565        N566   1.359       .  A
C565        N570   1.359       .  A
C565        C677   1.438       .  S
N566        C567   1.358       .  A
C567        N568   1.356       .  A
C567        C675   1.438       .  S
N568        C569   1.356       .  A
C569        N570   1.358       .  A
C569        C673   1.438       .  S
C571        N572   1.359       .  A
C571        N576   1.359       .  A
C571        C671   1.438       .  S
N572        C573   1.358       .  A
C573        N574   1.356       .  A
C573        C667   1.438       .  S
N574        C575   1.356       .  A
C575        N576   1.358       .  A
C575        C670   1.438       .  S
N577        N578   1.320       .  A
N577       Mn744   2.199   1_554  S
N578        C585   1.351       .  A
N579        N581   1.317       .  A
N579        N580   1.321       .  A
N580        C586   1.351       .  A
N581        N582   1.321       .  A
N581       Mn882   2.205   1_545  S
N582        C586   1.351       .  A
N583        N584   1.320       .  A
N583       Mn733   2.199   1_554  S
C586        C685   1.438       .  S
N587        N593   1.317       .  A
N587        N588   1.322       .  A
N587       Mn617   2.210       .  S
N588        C596   1.353       .  A
N589        N590   1.322       .  A
N589        N591   1.317       .  A
N589       Mn595   2.210       .  S
N590        C597   1.353       .  A
N591        N592   1.320       .  A
N591       Mn617   2.201       .  S
N592        C597   1.350       .  A
N593        N594   1.320       .  A
N593       Mn595   2.201       .  S
N594        C596   1.350       .  A
Mn595       N721   2.199       .  S
C596        C674   1.438       .  S
C597        C689   1.438       .  S
N598        N599   1.320       .  A
N598        N604   1.316       .  A
N598       Mn606   2.201       .  S
N599        C607   1.350       .  A
N600        N602   1.317       .  A
N600        N601   1.320       .  A
N600       Mn618   2.201       .  S
N601        C608   1.350       .  A
N602        N603   1.322       .  A
N602       Mn606   2.210       .  S
N603        C608   1.353       .  A
N604        N605   1.322       .  A
N604       Mn618   2.210       .  S
N605        C607   1.353       .  A
Mn606       N715   2.199       .  S
Mn606       N857   2.205       .  S
Mn606      Cl619   2.549       .  S
C607        C676   1.438       .  S
C608        C687   1.438       .  S
N609        N610   1.321       .  A
N609        N615   1.317       .  A
N609       Mn893   2.205       .  S
N610        C620   1.351       .  A
N611        N612   1.320       .  A
N611       Mn618   2.199       .  S
N613        N614   1.320       .  A
N613       Mn617   2.199       .  S
N614        C897   1.351   1_545  A
N615        N616   1.321       .  A
N616        C620   1.351       .  A
Mn617       N885   2.205   1_545  S
Mn618      Cl619   2.549       .  S
C620        C678   1.438       .  S
C621        N890   1.351       .  A
N622        N623   1.320       .  A
N622       Mn651   2.199       .  S
N623        C630   1.351       .  A
N624        N626   1.317       .  A
N624        N625   1.321       .  A
N625        C631   1.351       .  A
N626        N627   1.321       .  A
N626       Mn927   2.205   1_545  S
N627        C631   1.351       .  A
N628        N629   1.320       .  A
N628       Mn640   2.199       .  S
C631        C680   1.438       .  S
N632        N638   1.316       .  A
N632        N633   1.322       .  A
N632       Mn662   2.210       .  S
N633        C641   1.353       .  A
N634        N635   1.322       .  A
N634        N636   1.316       .  A
N634       Mn640   2.210       .  S
N635        C642   1.353       .  A
N636        N637   1.320       .  A
N636       Mn662   2.201       .  S
N637        C642   1.350       .  A
N638        N639   1.320       .  A
N638       Mn640   2.201       .  S
N639        C641   1.350       .  A
C641        C668   1.438       .  S
C642        C684   1.438       .  S
N643        N644   1.320       .  A
N643        N649   1.317       .  A
N643       Mn651   2.201       .  S
N644        C652   1.350       .  A
N645        N647   1.316       .  A
N645        N646   1.320       .  A
N645       Mn663   2.201       .  S
N646        C653   1.350       .  A
N647        N648   1.322       .  A
N647       Mn651   2.210       .  S
N648        C653   1.353       .  A
N649        N650   1.322       .  A
N649       Mn663   2.210       .  S
N650        C652   1.353       .  A
Mn651       N902   2.205       .  S
Mn651      Cl664   2.549       .  S
C652        C669   1.438       .  S
C653        C682   1.438       .  S
N654        N655   1.321       .  A
N654        N660   1.317       .  A
N654       Mn938   2.205       .  S
N655        C665   1.351       .  A
N656        N657   1.320       .  A
N656       Mn663   2.199       .  S
N658        N659   1.320       .  A
N658       Mn662   2.199       .  S
N659        C942   1.351   1_545  A
N660        N661   1.321       .  A
N661        C665   1.351       .  A
Mn662       N930   2.205   1_545  S
Mn663      Cl664   2.549       .  S
C665        C672   1.438       .  S
C666        N935   1.351       .  A
C667        C668   1.207       .  T
C669        C670   1.207       .  T
C671        C672   1.207       .  T
C673        C674   1.207       .  T
C675        C676   1.207       .  T
C677        C678   1.207       .  T
C679        C680   1.207       .  T
C681        C682   1.207       .  T
C683        C684   1.207       .  T
C685        C686   1.207       .  T
C686        C691   1.438       .  S
C687        C688   1.207       .  T
C688        C695   1.438       .  S
C689        C690   1.207       .  T
C690        C693   1.438       .  S
C691        N692   1.359       .  A
C691        N696   1.359       .  A
N692        C693   1.358       .  A
C693        N694   1.356       .  A
N694        C695   1.356       .  A
C695        N696   1.358       .  A
C697        N698   1.359       .  A
C697        N702   1.359       .  A
C697        C817   1.438       .  S
N698        C699   1.358       .  A
C699        N700   1.356       .  A
C699        C819   1.438       .  S
N700        C701   1.356       .  A
C701        N702   1.358       .  A
C701        C821   1.438       .  S
C703        N704   1.359       .  A
C703        N708   1.359       .  A
C703        C815   1.438       .  S
N704        C705   1.358       .  A
C705        N706   1.356       .  A
C705        C813   1.438       .  S
N706        C707   1.356       .  A
C707        N708   1.358       .  A
C707        C811   1.438       .  S
C709        N710   1.359       .  A
C709        N714   1.359       .  A
C709        C809   1.438       .  S
N710        C711   1.358       .  A
C711        N712   1.356       .  A
C711        C805   1.438       .  S
N712        C713   1.356       .  A
C713        N714   1.358       .  A
C713        C808   1.438       .  S
N715        N716   1.320       .  A
N716        C723   1.351       .  A
N717        N719   1.317       .  A
N717        N718   1.321       .  A
N718        C724   1.351       .  A
N719        N720   1.321       .  A
N719      Mn1020   2.205   1_545  S
N720        C724   1.351       .  A
N721        N722   1.320       .  A
C724        C823   1.438       .  S
N725        N731   1.317       .  A
N725        N726   1.322       .  A
N725       Mn755   2.210       .  S
N726        C734   1.353       .  A
N727        N728   1.322       .  A
N727        N729   1.316       .  A
N727       Mn733   2.210       .  S
N728        C735   1.353       .  A
N729        N730   1.320       .  A
N729       Mn755   2.201       .  S
N730        C735   1.350       .  A
N731        N732   1.320       .  A
N731       Mn733   2.201       .  S
N732        C734   1.350       .  A
C734        C812   1.438       .  S
C735        C827   1.438       .  S
N736        N737   1.320       .  A
N736        N742   1.316       .  A
N736       Mn744   2.201       .  S
N737        C745   1.350       .  A
N738        N740   1.317       .  A
N738        N739   1.320       .  A
N738       Mn756   2.201       .  S
N739        C746   1.350       .  A
N740        N741   1.322       .  A
N740       Mn744   2.210       .  S
N741        C746   1.353       .  A
N742        N743   1.322       .  A
N742       Mn756   2.210       .  S
N743        C745   1.353       .  A
Mn744       N995   2.205       .  S
Mn744      Cl757   2.549       .  S
C745        C814   1.438       .  S
C746        C825   1.438       .  S
N747        N748   1.321       .  A
N747        N753   1.317       .  A
N747      Mn1031   2.205       .  S
N748        C758   1.351       .  A
N749        N750   1.320       .  A
N749       Mn756   2.199       .  S
N751        N752   1.320       .  A
N751       Mn755   2.199       .  S
N752       C1035   1.351   1_545  A
N753        N754   1.321       .  A
N754        C758   1.351       .  A
Mn755      N1023   2.205   1_545  S
Mn756      Cl757   2.549       .  S
C758        C816   1.438       .  S
C759       N1028   1.351       .  A
N760        N761   1.320       .  A
N760       Mn789   2.199       .  S
N761        C768   1.351       .  A
N762        N764   1.317       .  A
N762        N763   1.321       .  A
N763        C769   1.351       .  A
N764        N765   1.321       .  A
N764      Mn1065   2.205   1_545  S
N765        C769   1.351       .  A
N766        N767   1.320       .  A
N766       Mn778   2.199       .  S
C769        C818   1.438       .  S
N770        N776   1.316       .  A
N770        N771   1.322       .  A
N770       Mn800   2.210       .  S
N771        C779   1.353       .  A
N772        N773   1.322       .  A
N772        N774   1.317       .  A
N772       Mn778   2.210       .  S
N773        C780   1.353       .  A
N774        N775   1.320       .  A
N774       Mn800   2.201       .  S
N775        C780   1.350       .  A
N776        N777   1.320       .  A
N776       Mn778   2.201       .  S
N777        C779   1.350       .  A
C779        C806   1.438       .  S
C780        C822   1.438       .  S
N781        N782   1.320       .  A
N781        N787   1.316       .  A
N781       Mn789   2.201       .  S
N782        C790   1.350       .  A
N783        N785   1.316       .  A
N783        N784   1.320       .  A
N783       Mn801   2.201       .  S
N784        C791   1.350       .  A
N785        N786   1.322       .  A
N785       Mn789   2.210       .  S
N786        C791   1.353       .  A
N787        N788   1.322       .  A
N787       Mn801   2.210       .  S
N788        C790   1.353       .  A
Mn789      N1040   2.205       .  S
Mn789      Cl802   2.549       .  S
C790        C807   1.438       .  S
C791        C820   1.438       .  S
N792        N793   1.321       .  A
N792        N798   1.317       .  A
N792      Mn1076   2.205       .  S
N793        C803   1.351       .  A
N794        N795   1.320       .  A
N794       Mn801   2.199       .  S
N796        N797   1.320       .  A
N796       Mn800   2.199       .  S
N797       C1080   1.351   1_545  A
N798        N799   1.321       .  A
N799        C803   1.351       .  A
Mn800      N1068   2.205   1_545  S
Mn801      Cl802   2.549       .  S
C803        C810   1.438       .  S
C804       N1073   1.351       .  A
C805        C806   1.207       .  T
C807        C808   1.207       .  T
C809        C810   1.207       .  T
C811        C812   1.207       .  T
C813        C814   1.207       .  T
C815        C816   1.207       .  T
C817        C818   1.207       .  T
C819        C820   1.207       .  T
C821        C822   1.207       .  T
C823        C824   1.207       .  T
C825        C826   1.207       .  T
C827        C828   1.207       .  T
C829        N830   1.359       .  A
C829        N834   1.359       .  A
C829       C1100   1.438       .  S
N830        C831   1.358       .  A
C831        N832   1.356       .  A
C831       C1104   1.438       .  S
N832        C833   1.356       .  A
C833        N834   1.358       .  A
C833       C1102   1.438       .  S
C835        N836   1.359       .  A
C835        N840   1.359       .  A
C835        C955   1.438       .  S
N836        C837   1.358       .  A
C837        N838   1.356       .  A
C837        C957   1.438       .  S
N838        C839   1.356       .  A
C839        N840   1.358       .  A
C839        C959   1.438       .  S
C841        N842   1.359       .  A
C841        N846   1.359       .  A
C841        C953   1.438       .  S
N842        C843   1.358       .  A
C843        N844   1.356       .  A
C843        C951   1.438       .  S
N844        C845   1.356       .  A
C845        N846   1.358       .  A
C845        C949   1.438       .  S
C847        N848   1.359       .  A
C847        N852   1.359       .  A
C847        C947   1.438       .  S
N848        C849   1.358       .  A
C849        N850   1.356       .  A
C849        C943   1.438       .  S
N850        C851   1.356       .  A
C851        N852   1.358       .  A
C851        C946   1.438       .  S
N853        N854   1.320       .  A
N853      Mn1020   2.199   1_554  S
N854        C861   1.351       .  A
N855        N857   1.317       .  A
N855        N856   1.321       .  A
N856        C862   1.351       .  A
N857        N858   1.321       .  A
N858        C862   1.351       .  A
N859        N860   1.320       .  A
N859      Mn1009   2.199   1_554  S
C862        C961   1.438       .  S
N863        N869   1.316       .  A
N863        N864   1.322       .  A
N863       Mn893   2.210       .  S
N864        C872   1.353       .  A
N865        N866   1.322       .  A
N865        N867   1.317       .  A
N865       Mn871   2.210       .  S
N866        C873   1.353       .  A
N867        N868   1.320       .  A
N867       Mn893   2.201       .  S
N868        C873   1.350       .  A
N869        N870   1.320       .  A
N869       Mn871   2.201       .  S
N870        C872   1.350       .  A
Mn871       N997   2.199       .  S
C872        C950   1.438       .  S
C873        C965   1.438       .  S
N874        N875   1.320       .  A
N874        N880   1.316       .  A
N874       Mn882   2.201       .  S
N875        C883   1.350       .  A
N876        N878   1.316       .  A
N876        N877   1.320       .  A
N876       Mn894   2.201       .  S
N877        C884   1.350       .  A
N878        N879   1.322       .  A
N878       Mn882   2.210       .  S
N879        C884   1.353       .  A
N880        N881   1.322       .  A
N880       Mn894   2.210       .  S
N881        C883   1.353       .  A
Mn882       N991   2.199       .  S
Mn882      Cl895   2.549       .  S
C883        C952   1.438       .  S
C884        C963   1.438       .  S
N885        N886   1.321       .  A
N885        N891   1.317       .  A
N886        C896   1.351       .  A
N887        N888   1.320       .  A
N887       Mn894   2.199       .  S
N889        N890   1.320       .  A
N889       Mn893   2.199       .  S
N891        N892   1.321       .  A
N892        C896   1.351       .  A
Mn894      Cl895   2.549       .  S
C896        C954   1.438       .  S
N898        N899   1.320       .  A
N898       Mn927   2.199       .  S
N899        C906   1.351       .  A
N900        N902   1.317       .  A
N900        N901   1.321       .  A
N901        C907   1.351       .  A
N902        N903   1.321       .  A
N903        C907   1.351       .  A
N904        N905   1.320       .  A
N904       Mn916   2.199       .  S
C907        C956   1.438       .  S
N908        N914   1.316       .  A
N908        N909   1.322       .  A
N908       Mn938   2.210       .  S
N909        C917   1.353       .  A
N910        N911   1.322       .  A
N910        N912   1.317       .  A
N910       Mn916   2.210       .  S
N911        C918   1.353       .  A
N912        N913   1.320       .  A
N912       Mn938   2.201       .  S
N913        C918   1.350       .  A
N914        N915   1.320       .  A
N914       Mn916   2.201       .  S
N915        C917   1.350       .  A
C917        C944   1.438       .  S
C918        C960   1.438       .  S
N919        N920   1.320       .  A
N919        N925   1.317       .  A
N919       Mn927   2.201       .  S
N920        C928   1.350       .  A
N921        N923   1.316       .  A
N921        N922   1.320       .  A
N921       Mn939   2.201       .  S
N922        C929   1.350       .  A
N923        N924   1.322       .  A
N923       Mn927   2.210       .  S
N924        C929   1.353       .  A
N925        N926   1.322       .  A
N925       Mn939   2.210       .  S
N926        C928   1.353       .  A
Mn927      Cl940   2.549       .  S
C928        C945   1.438       .  S
C929        C958   1.438       .  S
N930        N931   1.321       .  A
N930        N936   1.317       .  A
N931        C941   1.351       .  A
N932        N933   1.320       .  A
N932       Mn939   2.199       .  S
N934        N935   1.320       .  A
N934       Mn938   2.199       .  S
N936        N937   1.321       .  A
N937        C941   1.351       .  A
Mn939      Cl940   2.549       .  S
C941        C948   1.438       .  S
C943        C944   1.207       .  T
C945        C946   1.207       .  T
C947        C948   1.207       .  T
C949        C950   1.207       .  T
C951        C952   1.207       .  T
C953        C954   1.207       .  T
C955        C956   1.207       .  T
C957        C958   1.207       .  T
C959        C960   1.207       .  T
C961        C962   1.207       .  T
C962        C967   1.438       .  S
C963        C964   1.207       .  T
C964        C971   1.438       .  S
C965        C966   1.207       .  T
C966        C969   1.438       .  S
C967        N968   1.359       .  A
C967        N972   1.359       .  A
N968        C969   1.358       .  A
C969        N970   1.356       .  A
N970        C971   1.356       .  A
C971        N972   1.358       .  A
C973        N974   1.359       .  A
C973        N978   1.359       .  A
C973       C1093   1.438       .  S
N974        C975   1.358       .  A
C975        N976   1.356       .  A
C975       C1095   1.438       .  S
N976        C977   1.356       .  A
C977        N978   1.358       .  A
C977       C1097   1.438       .  S
C979        N980   1.359       .  A
C979        N984   1.359       .  A
C979       C1091   1.438       .  S
N980        C981   1.358       .  A
C981        N982   1.356       .  A
C981       C1089   1.438       .  S
N982        C983   1.356       .  A
C983        N984   1.358       .  A
C983       C1087   1.438       .  S
C985        N986   1.359       .  A
C985        N990   1.359       .  A
C985       C1085   1.438       .  S
N986        C987   1.358       .  A
C987        N988   1.356       .  A
C987       C1081   1.438       .  S
N988        C989   1.356       .  A
C989        N990   1.358       .  A
C989       C1084   1.438       .  S
N991        N992   1.320       .  A
N992        C999   1.351       .  A
N993        N995   1.317       .  A
N993        N994   1.321       .  A
N994       C1000   1.351       .  A
N995        N996   1.321       .  A
N996       C1000   1.351       .  A
N997        N998   1.320       .  A
C1000      C1099   1.438       .  S
N1001      N1007   1.317       .  A
N1001      N1002   1.322       .  A
N1001     Mn1031   2.210       .  S
N1002      C1010   1.353       .  A
N1003      N1004   1.322       .  A
N1003      N1005   1.316       .  A
N1003     Mn1009   2.210       .  S
N1004      C1011   1.353       .  A
N1005      N1006   1.320       .  A
N1005     Mn1031   2.201       .  S
N1006      C1011   1.350       .  A
N1007      N1008   1.320       .  A
N1007     Mn1009   2.201       .  S
N1008      C1010   1.350       .  A
C1010      C1088   1.438       .  S
C1011      C1103   1.438       .  S
N1012      N1013   1.320       .  A
N1012      N1018   1.316       .  A
N1012     Mn1020   2.201       .  S
N1013      C1021   1.350       .  A
N1014      N1016   1.317       .  A
N1014      N1015   1.320       .  A
N1014     Mn1032   2.201       .  S
N1015      C1022   1.350       .  A
N1016      N1017   1.322       .  A
N1016     Mn1020   2.210       .  S
N1017      C1022   1.353       .  A
N1018      N1019   1.322       .  A
N1018     Mn1032   2.210       .  S
N1019      C1021   1.353       .  A
Mn1020    Cl1033   2.549       .  S
C1021      C1090   1.438       .  S
C1022      C1101   1.438       .  S
N1023      N1024   1.321       .  A
N1023      N1029   1.317       .  A
N1024      C1034   1.351       .  A
N1025      N1026   1.320       .  A
N1025     Mn1032   2.199       .  S
N1027      N1028   1.320       .  A
N1027     Mn1031   2.199       .  S
N1029      N1030   1.321       .  A
N1030      C1034   1.351       .  A
Mn1032    Cl1033   2.549       .  S
C1034      C1092   1.438       .  S
N1036      N1037   1.320       .  A
N1036     Mn1065   2.199       .  S
N1037      C1044   1.351       .  A
N1038      N1040   1.317       .  A
N1038      N1039   1.321       .  A
N1039      C1045   1.351       .  A
N1040      N1041   1.321       .  A
N1041      C1045   1.351       .  A
N1042      N1043   1.320       .  A
N1042     Mn1054   2.199       .  S
C1045      C1094   1.438       .  S
N1046      N1052   1.316       .  A
N1046      N1047   1.322       .  A
N1046     Mn1076   2.210       .  S
N1047      C1055   1.353       .  A
N1048      N1049   1.322       .  A
N1048      N1050   1.317       .  A
N1048     Mn1054   2.210       .  S
N1049      C1056   1.353       .  A
N1050      N1051   1.320       .  A
N1050     Mn1076   2.201       .  S
N1051      C1056   1.350       .  A
N1052      N1053   1.320       .  A
N1052     Mn1054   2.201       .  S
N1053      C1055   1.350       .  A
C1055      C1082   1.438       .  S
C1056      C1098   1.438       .  S
N1057      N1058   1.320       .  A
N1057      N1063   1.316       .  A
N1057     Mn1065   2.201       .  S
N1058      C1066   1.350       .  A
N1059      N1061   1.317       .  A
N1059      N1060   1.320       .  A
N1059     Mn1077   2.201       .  S
N1060      C1067   1.350       .  A
N1061      N1062   1.322       .  A
N1061     Mn1065   2.210       .  S
N1062      C1067   1.353       .  A
N1063      N1064   1.322       .  A
N1063     Mn1077   2.210       .  S
N1064      C1066   1.353       .  A
Mn1065    Cl1078   2.549       .  S
C1066      C1083   1.438       .  S
C1067      C1096   1.438       .  S
N1068      N1069   1.321       .  A
N1068      N1074   1.317       .  A
N1069      C1079   1.351       .  A
N1070      N1071   1.320       .  A
N1070     Mn1077   2.199       .  S
N1072      N1073   1.320       .  A
N1072     Mn1076   2.199       .  S
N1074      N1075   1.321       .  A
N1075      C1079   1.351       .  A
Mn1077    Cl1078   2.549       .  S
C1079      C1086   1.438       .  S
C1081      C1082   1.207       .  T
C1083      C1084   1.207       .  T
C1085      C1086   1.207       .  T
C1087      C1088   1.207       .  T
C1089      C1090   1.207       .  T
C1091      C1092   1.207       .  T
C1093      C1094   1.207       .  T
C1095      C1096   1.207       .  T
C1097      C1098   1.207       .  T
C1099      C1100   1.207       .  T
C1101      C1102   1.207       .  T
C1103      C1104   1.207       .  T
