geometry optimzed in LAMMPS
_audit_creation_date              2020-12-01 
_audit_creation_method            'lammps2cif' 
_symmetry_space_group_name_H-M    'P1' 
_symmetry_Int_Tables_number       1 
_symmetry_cell_setting            triclinic 
loop_ 
_symmetry_equiv_pos_as_xyz 
  x,y,z 
_cell_length_a                    27.3131873 
_cell_length_b                    27.31334238228726 
_cell_length_c                    28.041090791423834 
_cell_angle_alpha                 90.00468323982135 
_cell_angle_beta                  90.00622523853036 
_cell_angle_gamma                 119.98846121402649 
loop_ 
_atom_site_label 
_atom_site_type_symbol 
_atom_site_fract_x 
_atom_site_fract_y 
_atom_site_fract_z 
_atom_site_charge 
C1          C  0.33423933  0.05088101  0.99723350     0.82200
N2          N  0.05032756  0.04996814  0.99691987    -0.76100
C3          C  0.05015837  0.00004016  0.99704312     0.84600
N4          N  0.99734461  0.28278192  0.99765195    -0.76100
C5          C  0.28216851  0.28363190  0.99748553     0.84700
N6          N  0.28482863  0.33500067  0.99757238    -0.77800
C7          C  0.15971291  0.22034012  0.66583103     0.82200
N8          N  0.16116795  0.27089428  0.66641522    -0.76100
C9          C  0.11321703  0.27422569  0.66585145     0.84600
N10         N  0.06266372  0.22528790  0.66541523    -0.76100
C11         C  0.05927284  0.17386332  0.66489675     0.84700
N12         N  0.10835558  0.17209485  0.66542736    -0.77800
C13         C  0.21952202  0.16149840  0.33359028     0.82200
N14         N  0.27010037  0.16296244  0.33521565    -0.76100
C15         C  0.27373559  0.11463076  0.33471643     0.84600
N16         N  0.22458499  0.06413396  0.33405241    -0.76100
C17         C  0.17275150  0.06046067  0.33295145     0.84700
N18         N  0.17145569  0.10960542  0.33304847    -0.77800
N19         N  0.22712786  0.23123045  0.99838178    -0.01500
C20         C  0.19585035  0.20194953  0.03765297     0.01100
C21         C  0.14316977  0.16066801  0.02470823    -0.21800
C22         C  0.13951002  0.16356930  0.97689614    -0.22000
C23         C  0.19117836  0.20376747  0.96072159     0.01000
H24         H  0.11057880  0.13218747  0.04835437     0.14700
H25         H  0.10457947  0.13562257  0.95454939     0.14800
N26         N  0.21214054  0.21828341  0.66577016    -0.01500
C27         C  0.24500831  0.22254601  0.70427214     0.01100
C28         C  0.29267753  0.22224243  0.69022997    -0.21800
C29         C  0.28961391  0.21584175  0.64198014    -0.22000
C30         C  0.24138571  0.21452413  0.62745157     0.01000
H31         H  0.32493488  0.22455154  0.71374029     0.14700
H32         H  0.32028245  0.21513335  0.61832835     0.14800
N33         N  0.21610453  0.21370668  0.33377803    -0.01500
C34         C  0.21157073  0.24400291  0.29591100     0.01100
C35         C  0.20363134  0.28627340  0.31209372    -0.21800
C36         C  0.20084203  0.28378299  0.35959381    -0.22000
C37         C  0.21188191  0.24235818  0.37302402     0.01000
H38         H  0.19925017  0.31565119  0.29017722     0.14700
H39         H  0.19663813  0.31307029  0.38275150     0.14800
N40         N  0.10288941  0.99803987  0.99819090    -0.01500
C41         C  0.13085591  0.32891191  0.03843338     0.01100
C42         C  0.17399130  0.31999277  0.02600240    -0.21800
C43         C  0.17166730  0.97971039  0.97657962    -0.22000
C44         C  0.13107486  0.99077087  0.96056872     0.01000
H45         H  0.20370115  0.31815756  0.04983649     0.14700
H46         H  0.19992491  0.97325030  0.95414326     0.14800
N47         N  0.32908347  0.11738416  0.33523206    -0.01500
C48         C  0.02779487  0.11967738  0.37174687     0.01100
C49         C  0.07910000  0.12793592  0.35784894    -0.21800
C50         C  0.07775373  0.12361413  0.31032715    -0.22000
C51         C  0.02845960  0.11851309  0.29459027     0.01000
H52         H  0.11216242  0.13125343  0.38103077     0.14700
H53         H  0.11020144  0.12524026  0.28802756     0.14800
N54         N  0.12019479  0.00512357  0.33285092    -0.01500
C55         C  0.08982457  0.30425141  0.37233102     0.01100
C56         C  0.04761141  0.25240182  0.35860537    -0.21800
C57         C  0.04431247  0.25354939  0.31111781    -0.22000
C58         C  0.08722899  0.30344453  0.29509465     0.01000
H59         H  0.01844891  0.21892292  0.38179594     0.14700
H60         H  0.01412112  0.22049377  0.28901030     0.14800
O61         O  0.16007035  0.19200897  0.22974812    -0.76500
C62         C  0.09531034  0.30334562  0.24266520     0.84500
O63         O  0.05476407  0.10952198  0.21558581    -0.77700
O64         O  0.99120096  0.15173252  0.12010105    -0.79100
O65         O  0.15712857  0.34058271  0.12118733    -0.78900
O66         O  0.22147212  0.28052486  0.21710759    -0.77600
Zn67       Zn  0.10919395  0.22265523  0.20974819     1.55700
O68         O  0.06604558  0.29944558  0.10001765    -0.79000
Cd69       Cd  0.18686848  0.28534474  0.14839015     1.59700
Cd70       Cd  0.09470663  0.14457764  0.14752280     1.59600
O71         O  0.22911191  0.26551002  0.10018138    -0.79000
O72         O  0.10914571  0.22229085  0.14606498    -1.89500
Cd73       Cd  0.04587515  0.23687294  0.14773764     1.59900
O74         O  0.17950795  0.17383467  0.11988719    -0.78900
O75         O  0.05064876  0.27658852  0.21626252    -0.77600
C76         C  0.02857003  0.12762928  0.24243347     0.85000
C77         C  0.20323801  0.23590500  0.24358139     0.84600
O78         O  0.13944222  0.30463278  0.22864696    -0.76500
C79         C  0.11788421  0.32807417  0.08926846     0.85400
O80         O  0.02775052  0.17099915  0.22918000    -0.76600
C81         C  0.20693571  0.21393152  0.08875919     0.85600
C82         C  0.00401575  0.12486033  0.08849850     0.85900
O83         O  0.03242640  0.10159443  0.09977104    -0.79000
N84         N  0.33595618  0.10544139  0.99887591    -0.01500
C85         C  0.00414069  0.13714267  0.03757020     0.01100
C86         C  0.01476485  0.18969903  0.02513656    -0.21800
C87         C  0.35451916  0.19276127  0.97826909    -0.22000
C88         C  0.34304510  0.14131961  0.96155120     0.01000
H89         H  0.01774979  0.22156268  0.04906656     0.14700
H90         H  0.36119475  0.22773742  0.95615561     0.14800
N91         N  0.11643254  0.32916280  0.66565045    -0.01500
C92         C  0.10268984  0.02065929  0.63079194     0.01100
C93         C  0.09215170  0.06213872  0.64488549    -0.21800
C94         C  0.08555612  0.05859808  0.69297436    -0.22000
C95         C  0.09406987  0.01562000  0.70761242     0.01000
H96         H  0.08782830  0.09040821  0.62126292     0.14700
H97         H  0.07843590  0.08637022  0.71571205     0.14800
N98         N  0.00404641  0.12227114  0.66466185    -0.01500
C99         C  0.30061202  0.10092375  0.62472645     0.01100
C100        C  0.24734198  0.06087337  0.63884706    -0.21800
C101        C  0.24896695  0.05791228  0.68700036    -0.22000
C102        C  0.30211155  0.09641105  0.70154082    -0.00200
H103        H  0.21250588  0.03308534  0.61604483     0.14700
H104        H  0.21493041  0.03117814  0.70998619     0.14800
O105        O  0.27189412  0.08443765  0.90750121    -0.76500
C106        C  0.20364787  0.19403715  0.91161570     0.84500
O107        O  0.16607999  0.99802524  0.88170800    -0.77700
O108        O  0.09684383  0.04232746  0.78929344    -0.79100
O109        O  0.26916074  0.22932542  0.78702781    -0.78900
O110        O  0.33400274  0.17035255  0.88341506    -0.77600
Zn111      Zn  0.22004995  0.11144207  0.88474759     1.55700
O112        O  0.17851162  0.18012593  0.76363564    -0.79000
Cd113      Cd  0.29568880  0.17376201  0.81727946     1.59700
Cd114      Cd  0.20506795  0.03512263  0.81466207     1.59600
O115        O  0.33592105  0.15572084  0.76652544    -0.79000
O116        O  0.21951018  0.11080675  0.82040866    -1.89500
Cd117      Cd  0.15697037  0.12439652  0.81685841     1.59900
O118        O  0.28685823  0.06302454  0.78234085    -0.78900
O119        O  0.16186716  0.16827077  0.88206664    -0.77600
C120        C  0.13986814  0.01307587  0.91165884     0.85000
C121        C  0.31894674  0.12874864  0.91296659     0.84600
O122        O  0.24768416  0.19096381  0.90570527    -0.76500
C123        C  0.22995006  0.21501781  0.75492172     0.85400
O124        O  0.14102059  0.05938011  0.90592393    -0.76600
C125        C  0.31355152  0.10500512  0.75281648     0.85600
C126        C  0.10760511  0.01378237  0.75808938     0.85900
O127        O  0.14319052  0.99797833  0.76602403    -0.79000
O128        O  0.96865393  0.05099409  0.42630520    -0.76500
C129        C  0.08246159  0.31885372  0.42148240     0.84500
O130        O  0.21880798  0.27537518  0.45231202    -0.77700
O131        O  0.26451081  0.21310542  0.54539975    -0.79100
O132        O  0.11477401  0.04946143  0.54873958    -0.78900
O133        O  0.05407371  0.11375598  0.45132675    -0.77600
Zn134      Zn  0.33413241  0.00094703  0.44874925     1.55700
O135        O  0.06951974  0.95765011  0.56835231    -0.79000
Cd136      Cd  0.05922595  0.07634493  0.51757022     1.59700
Cd137      Cd  0.25543675  0.31781242  0.51845615     1.59600
O138        O  0.36857951  0.10703263  0.57176128    -0.79000
O139        O  0.33404707  0.00046242  0.51337886    -1.89500
Cd140      Cd  0.01361768  0.27166111  0.51805796     1.59900
O141        O  0.27954467  0.06867428  0.54424979    -0.78900
O142        O  0.05753059  0.27784285  0.45203712    -0.77600
C143        C  0.23461923  0.25020192  0.42184409     0.85000
C144        C  0.01300503  0.09804074  0.42093058     0.84600
O145        O  0.07886444  0.36271803  0.42651790    -0.76500
C146        C  0.10085041  0.00892856  0.57960067     0.85400
O147        O  0.28196820  0.25344992  0.42680175    -0.76600
C148        C  0.31808907  0.09663762  0.57620885     0.85600
C149        C  0.23598841  0.22378634  0.57671240     0.85900
O150        O  0.21807397  0.25746272  0.56798055    -0.79000
C151        C  0.33497652  0.38441167  0.99700121     0.82200
N152        N  0.04906952  0.38172430  0.99809919    -0.76100
C153        C  0.04863372  0.33170620  0.99746088     0.84600
N154        N  0.99951427  0.61754616  0.99853062    -0.76100
C155        C  0.28273261  0.61646595  0.99802647     0.84700
N156        N  0.28490126  0.66763966  0.99981203    -0.77800
C157        C  0.15962988  0.55169903  0.66467034     0.82200
N158        N  0.16283647  0.60303286  0.66479808    -0.76100
C159        C  0.11551043  0.60797348  0.66417458     0.84600
N160        N  0.06438170  0.55989898  0.66361613    -0.76100
C161        C  0.05905747  0.50753584  0.66363506     0.84700
N162        N  0.10715488  0.50422288  0.66415169    -0.77800
C163        C  0.21817467  0.49382377  0.33267092     0.82200
N164        N  0.26836435  0.49474418  0.33249656    -0.76100
C165        C  0.27185189  0.44660394  0.33240256     0.84600
N166        N  0.22263915  0.39620164  0.33321361    -0.76100
C167        C  0.17082197  0.39277442  0.33303240     0.84700
N168        N  0.16962435  0.44208807  0.33353218    -0.77800
N169        N  0.22810260  0.56351755  0.99942815    -0.01500
C170        C  0.19751436  0.53397785  0.03891624     0.01100
C171        C  0.14537758  0.49115013  0.02630245    -0.21800
C172        C  0.14123655  0.49374320  0.97848505    -0.22000
C173        C  0.19234652  0.53481348  0.96203935     0.01000
H174        H  0.11339705  0.46198954  0.05011674     0.14700
H175        H  0.10636858  0.46553810  0.95620136     0.14800
N176        N  0.21104129  0.54740169  0.66514162    -0.01500
C177        C  0.24260327  0.54869174  0.70377775     0.01100
C178        C  0.28612194  0.54110353  0.68997521    -0.21800
C179        C  0.28307776  0.53450009  0.64184148    -0.22000
C180        C  0.23888998  0.54084214  0.62691480     0.01000
H181        H  0.31622258  0.54007548  0.71377901     0.14700
H182        H  0.31238139  0.52990516  0.61903108     0.14800
N183        N  0.21634238  0.54683685  0.33295968    -0.01500
C184        C  0.21517165  0.57895330  0.29502549     0.01100
C185        C  0.21083850  0.62347863  0.31110270    -0.21800
C186        C  0.20640360  0.62010177  0.35864940    -0.22000
C187        C  0.21354430  0.57626629  0.37220725     0.01000
H188        H  0.20967749  0.65472492  0.28898454     0.14700
H189        H  0.20365142  0.64991751  0.38214902     0.14800
N190        N  0.10139303  0.32976780  0.99886534    -0.01500
C191        C  0.13259927  0.66338745  0.03802870     0.01100
C192        C  0.17495998  0.65335930  0.02560311    -0.21800
C193        C  0.17176307  0.31353821  0.97815788    -0.22000
C194        C  0.13037975  0.32303778  0.96156159     0.01000
H195        H  0.20351415  0.64988079  0.04965121     0.14700
H196        H  0.20067147  0.30791908  0.95595179     0.14800
N197        N  0.32721137  0.44967025  0.33276101    -0.01500
C198        C  0.02855278  0.45640900  0.37407329     0.01100
C199        C  0.08147014  0.46848374  0.36095844    -0.21800
C200        C  0.08144406  0.46563358  0.31344999    -0.22000
C201        C  0.03098495  0.45648441  0.29691255     0.01000
H202        H  0.11488146  0.47253381  0.38417567     0.14700
H203        H  0.11543765  0.47042212  0.29178053     0.14800
N204        N  0.11831602  0.33742224  0.33314310    -0.01500
C205        C  0.09239875  0.63868917  0.37257041     0.01100
C206        C  0.04929958  0.58734517  0.35869168    -0.21800
C207        C  0.04597962  0.58881929  0.31125072    -0.22000
C208        C  0.09004464  0.63824059  0.29547452     0.01000
H209        H  0.01918129  0.55443886  0.38178339     0.14700
H210        H  0.01465087  0.55647182  0.28918420     0.14800
O211        O  0.16352634  0.52658217  0.22889047    -0.76500
C212        C  0.09893545  0.63828771  0.24332659     0.84500
O213        O  0.05715010  0.44502183  0.21832707    -0.77700
O214        O  0.99321047  0.48669956  0.12073166    -0.79100
O215        O  0.15948674  0.67496810  0.12060946    -0.78900
O216        O  0.22472328  0.61519598  0.21619401    -0.77600
Zn217      Zn  0.11225203  0.55734362  0.21043573     1.55700
O218        O  0.06818303  0.63329368  0.09995490    -0.79000
Cd219      Cd  0.18941614  0.61987567  0.14808926     1.59700
Cd220      Cd  0.09684120  0.47915962  0.14939656     1.59600
O221        O  0.23088587  0.59903801  0.10018441    -0.79000
O222        O  0.11171579  0.55696461  0.14681174    -1.89500
Cd223      Cd  0.04873072  0.57164325  0.14834866     1.59900
O224        O  0.18153071  0.50789848  0.12167039    -0.78900
O225        O  0.05456951  0.61227103  0.21649151    -0.77600
C226        C  0.03098828  0.46382731  0.24446059     0.85000
C227        C  0.20654653  0.57065155  0.24272123     0.84600
O228        O  0.14302117  0.63889772  0.23007379    -0.76500
C229        C  0.11989729  0.66233867  0.08896796     0.85400
O230        O  0.03052891  0.50694072  0.23009800    -0.76600
C231        C  0.20866176  0.54717528  0.08982051     0.85600
C232        C  0.00579733  0.45930004  0.08947249     0.85900
O233        O  0.03519628  0.43708459  0.10079895    -0.79000
N234        N  0.33728252  0.43922644  0.99776494    -0.01500
C235        C  0.00442555  0.47019982  0.03833434     0.01100
C236        C  0.01490418  0.52261968  0.02543930    -0.21800
C237        C  0.35537425  0.52609434  0.97598468    -0.22000
C238        C  0.34472941  0.47457953  0.96000231     0.01000
H239        H  0.01876649  0.55508050  0.04916968     0.14700
H240        H  0.36151855  0.56063056  0.95346487     0.14800
N241        N  0.11960960  0.66352030  0.66440295    -0.01500
C242        C  0.12267641  0.36291469  0.62717214     0.01100
C243        C  0.12767962  0.41284260  0.64166483    -0.21800
C244        C  0.12181972  0.41019258  0.68992377    -0.22000
C245        C  0.11553770  0.35968318  0.70409418     0.01000
H246        H  0.13136359  0.44574193  0.61816609     0.14700
H247        H  0.12313822  0.44185137  0.71335640     0.14800
N248        N  0.00271616  0.45687806  0.66361123    -0.01500
C249        C  0.31372310  0.41580951  0.63128763     0.01100
C250        C  0.27132167  0.36431358  0.64532448    -0.21800
C251        C  0.27487209  0.36117281  0.69342543    -0.22000
C252        C  0.31878305  0.41208968  0.70804503    -0.00200
H253        H  0.24189657  0.33250424  0.62169854     0.14700
H254        H  0.24590251  0.32719461  0.71632896     0.14800
O255        O  0.27374068  0.41678289  0.90676139    -0.76500
C256        C  0.20505833  0.52540437  0.91294789     0.84500
O257        O  0.16563790  0.32919328  0.88300610    -0.77700
O258        O  0.10523767  0.37586467  0.78651641    -0.79100
O259        O  0.27161451  0.56140545  0.78581297    -0.78900
O260        O  0.33667019  0.50186951  0.88112378    -0.77600
Zn261      Zn  0.22205647  0.44420171  0.88525420     1.55700
O262        O  0.17989233  0.51824059  0.76688713    -0.79000
Cd263      Cd  0.29816085  0.50508965  0.81507751     1.59700
Cd264      Cd  0.20899302  0.36794477  0.81776373     1.59600
O265        O  0.33200543  0.47953918  0.76429579    -0.79000
O266        O  0.22236455  0.44415074  0.82088788    -1.89500
Cd267      Cd  0.16007148  0.45834668  0.81687497     1.59900
O268        O  0.29079062  0.38959243  0.78951717    -0.78900
O269        O  0.16332793  0.49901990  0.88347189    -0.77600
C270        C  0.13973972  0.34508690  0.91247811     0.85000
C271        C  0.32115010  0.46089824  0.91144386     0.84600
O272        O  0.24971772  0.52349065  0.90679235    -0.76500
C273        C  0.23117670  0.54793758  0.75502791     0.85400
O274        O  0.14263831  0.39216159  0.90656159    -0.76600
C275        C  0.31883249  0.42853017  0.75790447     0.85600
C276        C  0.11970192  0.35041307  0.75501580     0.85900
O277        O  0.15253209  0.33175201  0.76516764    -0.79000
O278        O  0.96978758  0.38309266  0.42542824    -0.76500
C279        C  0.08471231  0.65356909  0.42139810     0.84500
O280        O  0.21916289  0.60692095  0.45224601    -0.77700
O281        O  0.26589322  0.54478661  0.54516054    -0.79100
O282        O  0.11947726  0.38599408  0.54550736    -0.78900
O283        O  0.05326064  0.44715989  0.45331135    -0.77600
Zn284      Zn  0.33164395  0.33329794  0.44808676     1.55700
O285        O  0.07163547  0.29578138  0.56977934    -0.79000
Cd286      Cd  0.05910748  0.40743763  0.51759121     1.59700
Cd287      Cd  0.25843036  0.65134150  0.51741654     1.59600
O288        O  0.37581519  0.44755165  0.56824793    -0.79000
O289        O  0.33153617  0.33337779  0.51280313    -1.89500
Cd290      Cd  0.01522286  0.60609267  0.51706813     1.59900
O291        O  0.28376886  0.40052020  0.54947413    -0.78900
O292        O  0.06030414  0.61272977  0.45207605    -0.77600
C293        C  0.23544547  0.58268083  0.42125959     0.85000
C294        C  0.01299715  0.43142623  0.42215448     0.84600
O295        O  0.07986740  0.69682202  0.42579548    -0.76500
C296        C  0.10840461  0.34691585  0.57700828     0.85400
O297        O  0.28327840  0.58694094  0.42581573    -0.76600
C298        C  0.32462670  0.42661740  0.58016647     0.85600
C299        C  0.23876229  0.55682660  0.57694244     0.85900
O300        O  0.22617724  0.59510504  0.57037531    -0.79000
C301        C  0.33483665  0.71741019  0.99902956     0.82200
N302        N  0.05047208  0.71651684  0.99688169    -0.76100
C303        C  0.05055551  0.66668298  0.99710896     0.84600
N304        N  0.99904689  0.95105053  0.99753990    -0.76100
C305        C  0.28218081  0.95005166  0.99703030     0.84700
N306        N  0.28435802  0.00120122  0.99739424    -0.77800
C307        C  0.16551975  0.89544208  0.66926211     0.82200
N308        N  0.16068318  0.94283510  0.66876429    -0.76100
C309        C  0.10891491  0.93917958  0.66895471     0.84600
N310        N  0.06191432  0.88680171  0.66909801    -0.76100
C311        C  0.06517048  0.83878011  0.66933435     0.84700
N312        N  0.11739067  0.84402816  0.66913124    -0.77800
C313        C  0.22008848  0.82816900  0.33337953     0.82200
N314        N  0.27065256  0.82974567  0.33487922    -0.76100
C315        C  0.27468924  0.78176682  0.33502226     0.84600
N316        N  0.22569378  0.73118014  0.33497503    -0.76100
C317        C  0.17368524  0.72722804  0.33362354     0.84700
N318        N  0.17194948  0.77622283  0.33328791    -0.77800
N319        N  0.22736402  0.89744456  0.99783830    -0.01500
C320        C  0.19558337  0.86852434  0.03698884     0.01100
C321        C  0.14278284  0.82769014  0.02379403    -0.21800
C322        C  0.13988620  0.83000814  0.97579223    -0.22000
C323        C  0.19200922  0.86979087  0.95997556     0.01000
H324        H  0.10970602  0.79974466  0.04740330     0.14700
H325        H  0.10513279  0.80197175  0.95326986     0.14800
N326        N  0.22106753  0.89982913  0.66945132    -0.01500
C327        C  0.25519416  0.90641604  0.70784241     0.01100
C328        C  0.30534096  0.91173011  0.69302228    -0.21800
C329        C  0.30176380  0.90481764  0.64487511    -0.22000
C330        C  0.25102153  0.89791334  0.63099558     0.01000
H331        H  0.33886355  0.91564021  0.71595732     0.14700
H332        H  0.33260477  0.90525599  0.62112228     0.14800
N333        N  0.21719085  0.88059274  0.33321567    -0.01500
C334        C  0.21419378  0.91152656  0.29512246     0.01100
C335        C  0.20884650  0.95555009  0.31100711    -0.21800
C336        C  0.20556291  0.95302081  0.35854282    -0.22000
C337        C  0.21428959  0.91019687  0.37226139     0.01000
H338        H  0.20656827  0.98614741  0.28889293     0.14700
H339        H  0.20230067  0.98277214  0.38176778     0.14800
N340        N  0.10353109  0.66503050  0.99844464    -0.01500
C341        C  0.13213560  0.99603885  0.03746042     0.01100
C342        C  0.17400681  0.98544872  0.02451811    -0.21800
C343        C  0.17301476  0.64728253  0.97774440    -0.22000
C344        C  0.13235941  0.65794592  0.96112882     0.01000
H345        H  0.20263977  0.98161645  0.04821213     0.14700
H346        H  0.20146839  0.64063920  0.95572543     0.14800
N347        N  0.33041929  0.78533874  0.33557497    -0.01500
C348        C  0.02880421  0.78892744  0.37243631     0.01100
C349        C  0.08100144  0.79920275  0.35879282    -0.21800
C350        C  0.07998482  0.79486043  0.31141115    -0.22000
C351        C  0.02995269  0.78762892  0.29536484     0.01000
H352        H  0.11445048  0.80302046  0.38180190     0.14700
H353        H  0.11304145  0.79731893  0.28957797     0.14800
N354        N  0.12140279  0.67173421  0.33355995    -0.01500
C355        C  0.09068056  0.97220847  0.37183285     0.01100
C356        C  0.04794550  0.92074018  0.35787542    -0.21800
C357        C  0.04512836  0.92193755  0.31041582    -0.22000
C358        C  0.08918481  0.97137469  0.29470216     0.01000
H359        H  0.01801959  0.88766339  0.38093899     0.14700
H360        H  0.01430280  0.88925881  0.28827243     0.14800
O361        O  0.16218797  0.85880966  0.22918250    -0.76500
C362        C  0.09811011  0.97109955  0.24255208     0.84500
O363        O  0.05599447  0.77714194  0.21660956    -0.77700
O364        O  0.99197113  0.81967042  0.12052287    -0.79100
O365        O  0.15960768  0.00761347  0.11990795    -0.78900
O366        O  0.22359367  0.94727686  0.21614156    -0.77600
Zn367      Zn  0.11120878  0.88961807  0.20974985     1.55700
O368        O  0.06817928  0.96658858  0.09958821    -0.79000
Cd369      Cd  0.18867132  0.95200460  0.14774012     1.59700
Cd370      Cd  0.09522050  0.81129500  0.14788937     1.59600
O371        O  0.23059213  0.93168359  0.09980394    -0.79000
O372        O  0.11074757  0.88933578  0.14604433    -1.89500
Cd373      Cd  0.04808527  0.90462908  0.14769106     1.59900
O374        O  0.17951342  0.84001240  0.11924594    -0.78900
O375        O  0.05374122  0.94515784  0.21573772    -0.77600
C376        C  0.02995560  0.79575894  0.24309358     0.85000
C377        C  0.20537281  0.90286320  0.24284558     0.84600
O378        O  0.14198220  0.97126029  0.22935161    -0.76500
C379        C  0.11987846  0.99518321  0.08844549     0.85400
O380        O  0.02954429  0.83912243  0.22929872    -0.76600
C381        C  0.20700347  0.88010837  0.08810945     0.85600
C382        C  0.00408389  0.79205765  0.08911953     0.85900
O383        O  0.03234064  0.76863930  0.10047420    -0.79000
N384        N  0.33678251  0.77217272  0.00037003    -0.01500
C385        C  0.00373039  0.80370964  0.03804967     0.01100
C386        C  0.01411056  0.85614997  0.02531645    -0.21800
C387        C  0.35484718  0.85921254  0.97895595    -0.22000
C388        C  0.34413976  0.80780365  0.96276547     0.01000
H389        H  0.01693075  0.88815110  0.04906008     0.14700
H390        H  0.36131995  0.89386031  0.95649917     0.14800
N391        N  0.10314830  0.98972140  0.66917820    -0.01500
C392        C  0.12533439  0.69741948  0.62605900     0.01100
C393        C  0.13064871  0.74762938  0.64079832    -0.21800
C394        C  0.12471481  0.74439048  0.68902235    -0.22000
C395        C  0.11824967  0.69377233  0.70295931     0.01000
H396        H  0.13438923  0.78114732  0.61793057     0.14700
H397        H  0.12577726  0.77549680  0.71292246     0.14800
N398        N  0.01433877  0.78278844  0.66981497    -0.01500
C399        C  0.30498953  0.76025309  0.62741905     0.01100
C400        C  0.25550454  0.71497262  0.64221877    -0.21800
C401        C  0.25876062  0.71192947  0.69040618    -0.22000
C402        C  0.30901714  0.75683657  0.70430797    -0.00200
H403        H  0.22263877  0.68529021  0.61893922     0.14700
H404        H  0.22778233  0.68095840  0.71388204     0.14800
O405        O  0.27469733  0.75104187  0.90773484    -0.76500
C406        C  0.20570306  0.85978165  0.91141183     0.84500
O407        O  0.16893133  0.66518351  0.88277597    -0.77700
O408        O  0.10655388  0.71043002  0.78502065    -0.79100
O409        O  0.27772621  0.90151906  0.78949043    -0.78900
O410        O  0.33801690  0.83674461  0.88393609    -0.77600
Zn411      Zn  0.22327538  0.77851750  0.88496420     1.55700
O412        O  0.18779285  0.85241323  0.76415852    -0.79000
Cd413      Cd  0.30020109  0.84192826  0.81800373     1.59700
Cd414      Cd  0.21029829  0.70263988  0.81634702     1.59600
O415        O  0.33699241  0.82214963  0.76529730    -0.79000
O416        O  0.22413777  0.77885962  0.82054772    -1.89500
Cd417      Cd  0.16261721  0.79291586  0.81483106     1.59900
O418        O  0.29328070  0.73094179  0.78688161    -0.78900
O419        O  0.16477084  0.83384750  0.88111879    -0.77600
C420        C  0.14217231  0.68029905  0.91207985     0.85000
C421        C  0.32184941  0.79508717  0.91364676     0.84600
O422        O  0.25034925  0.85752992  0.90647965    -0.76500
C423        C  0.23877208  0.89037199  0.75778136     0.85400
O424        O  0.14380908  0.72673471  0.90586325    -0.76600
C425        C  0.31848542  0.77065240  0.75521283     0.85600
C426        C  0.12032387  0.68380466  0.75416540     0.85900
O427        O  0.15120947  0.66339501  0.76562454    -0.79000
O428        O  0.97073447  0.71754781  0.42556287    -0.76500
C429        C  0.08250533  0.98667542  0.42077573     0.84500
O430        O  0.21976493  0.94186030  0.45165039    -0.77700
O431        O  0.26605956  0.88481140  0.54874612    -0.79100
O432        O  0.12192918  0.71958543  0.54400296    -0.78900
O433        O  0.05525381  0.78156642  0.45139053    -0.77600
Zn434      Zn  0.33386406  0.66658397  0.44766982     1.55700
O435        O  0.07167131  0.62990393  0.56983006    -0.79000
Cd436      Cd  0.06307163  0.74310603  0.51562254     1.59700
Cd437      Cd  0.25792948  0.98670150  0.51633158     1.59600
O438        O  0.37151276  0.77571008  0.56995908    -0.79000
O439        O  0.33393565  0.66559751  0.51223105    -1.89500
Cd440      Cd  0.01290204  0.93863183  0.51624213     1.59900
O441        O  0.28116485  0.73359940  0.54582851    -0.78900
O442        O  0.05768145  0.94550682  0.45109977    -0.77600
C443        C  0.23624087  0.91725588  0.42129808     0.85000
C444        C  0.01412918  0.76552950  0.42107625     0.84600
O445        O  0.07788405  0.03000410  0.42564121    -0.76500
C446        C  0.10988207  0.68083618  0.57613952     0.85400
O447        O  0.28395000  0.92135700  0.42646997    -0.76600
C448        C  0.32050210  0.76167856  0.57720074     0.85600
C449        C  0.24038834  0.89941252  0.57996663     0.85900
O450        O  0.22032202  0.93072564  0.56887516    -0.79000
C451        C  0.66744970  0.05081988  0.99809049     0.82200
N452        N  0.38334085  0.04878762  0.99752981    -0.76100
C453        C  0.38312062  0.99880882  0.99714041     0.84600
N454        N  0.33168569  0.28291788  0.99802575    -0.76100
C455        C  0.61553798  0.28335397  0.99875744     0.84700
N456        N  0.61773252  0.33463910  0.99852516    -0.77800
C457        C  0.49203170  0.21730206  0.66478573     0.82200
N458        N  0.49711124  0.26941450  0.66480022    -0.76100
C459        C  0.45089826  0.27633073  0.66414365     0.84600
N460        N  0.39883756  0.22930140  0.66387432    -0.76100
C461        C  0.39184062  0.17616216  0.66412318     0.84700
N462        N  0.43887636  0.17109491  0.66469066    -0.77800
C463        C  0.55261214  0.16117330  0.33541152     0.82200
N464        N  0.60324369  0.16272323  0.33510642    -0.76100
C465        C  0.60684470  0.11448780  0.33392972     0.84600
N466        N  0.55777282  0.06411633  0.33395313    -0.76100
C467        C  0.50597997  0.06027484  0.33445770     0.84700
N468        N  0.50442102  0.10927073  0.33583634    -0.77800
N469        N  0.56080149  0.23044242  0.99974877    -0.01500
C470        C  0.52925949  0.20093542  0.03889032     0.01100
C471        C  0.47658459  0.15978974  0.02573071    -0.21800
C472        C  0.47335119  0.16267794  0.97787349    -0.22000
C473        C  0.52539848  0.20253569  0.96195582     0.01000
H474        H  0.44378480  0.13123466  0.04922127     0.14700
H475        H  0.43849534  0.13475437  0.95541736     0.14800
N476        N  0.54184394  0.21030755  0.66419713    -0.01500
C477        C  0.57169977  0.20725810  0.70226740     0.01100
C478        C  0.61061387  0.19320803  0.68768020    -0.21800
C479        C  0.60809987  0.18932812  0.63945631    -0.22000
C480        C  0.56781251  0.20221727  0.62536231     0.01000
H481        H  0.63735316  0.18589754  0.71068284     0.14700
H482        H  0.63613283  0.18274183  0.61658470     0.14800
N483        N  0.54964590  0.21353190  0.33528053    -0.01500
C484        C  0.54690538  0.24423880  0.29693716     0.01100
C485        C  0.54198429  0.28861995  0.31248349    -0.21800
C486        C  0.53848359  0.28639946  0.36008313    -0.22000
C487        C  0.54654407  0.24327479  0.37420318     0.01000
H488        H  0.54020042  0.31924762  0.29004019     0.14700
H489        H  0.53572552  0.31663873  0.38305583     0.14800
N490        N  0.43591699  0.99684213  0.99860121    -0.01500
C491        C  0.46427545  0.32645504  0.03806206     0.01100
C492        C  0.50590051  0.31547695  0.02523771    -0.21800
C493        C  0.50374098  0.97668902  0.97814636    -0.22000
C494        C  0.46359948  0.98795649  0.96136181     0.01000
H495        H  0.53397523  0.31083522  0.04900010     0.14700
H496        H  0.53192060  0.96961643  0.95619905     0.14800
N497        N  0.66198380  0.11699736  0.33378628    -0.01500
C498        C  0.36221309  0.12233114  0.37458008     0.01100
C499        C  0.41421836  0.13220728  0.36097124    -0.21800
C500        C  0.41297800  0.12714426  0.31353265    -0.22000
C501        C  0.36298119  0.11970187  0.29732865     0.01000
H502        H  0.44760913  0.13628198  0.38417990     0.14700
H503        H  0.44581562  0.12930073  0.29161313     0.14800
N504        N  0.45390576  0.00480443  0.33452659    -0.01500
C505        C  0.42511432  0.30488525  0.37424749     0.01100
C506        C  0.38366778  0.25231780  0.36113305    -0.21800
C507        C  0.38087045  0.25216519  0.31359473    -0.22000
C508        C  0.42290803  0.30221796  0.29702628     0.01000
H509        H  0.35425562  0.21922788  0.38451136     0.14700
H510        H  0.35122609  0.21829734  0.29192384     0.14800
O511        O  0.49510578  0.19044388  0.23114126    -0.76500
C512        C  0.43065498  0.30163092  0.24460733     0.84500
O513        O  0.38896016  0.10811471  0.21851955    -0.77700
O514        O  0.32529090  0.15068074  0.12135189    -0.79100
O515        O  0.49221546  0.33866618  0.12046337    -0.78900
O516        O  0.55590768  0.27906302  0.21766901    -0.77600
Zn517      Zn  0.44351952  0.22033904  0.21116282     1.55700
O518        O  0.40063533  0.29750157  0.10084283    -0.79000
Cd519      Cd  0.52089190  0.28317930  0.14920792     1.59700
Cd520      Cd  0.42806769  0.14207219  0.14932144     1.59600
O521        O  0.56389382  0.26363406  0.10189936    -0.79000
O522        O  0.44322830  0.22011759  0.14748635    -1.89500
Cd523      Cd  0.38052251  0.23549687  0.14929479     1.59900
O524        O  0.51295419  0.17190022  0.12109453    -0.78900
O525        O  0.38590708  0.27529312  0.21821428    -0.77600
C526        C  0.36268729  0.12675496  0.24474298     0.85000
C527        C  0.53799276  0.23493465  0.24467482     0.84600
O528        O  0.47438863  0.30207348  0.23069856    -0.76500
C529        C  0.45220762  0.32584741  0.08920696     0.85400
O530        O  0.36153600  0.16943645  0.23013728    -0.76600
C531        C  0.54053886  0.21215104  0.09005661     0.85600
C532        C  0.33790810  0.12374653  0.08965971     0.85900
O533        O  0.36572587  0.09983848  0.10104091    -0.79000
N534        N  0.66920298  0.10548796  0.99942122    -0.01500
C535        C  0.33780219  0.13606137  0.03860195     0.01100
C536        C  0.34823207  0.18858903  0.02615369    -0.21800
C537        C  0.68715277  0.19261413  0.97829742    -0.22000
C538        C  0.67676775  0.14134223  0.96199091     0.01000
H539        H  0.35112702  0.22046815  0.05002108     0.14700
H540        H  0.69385989  0.22747873  0.95597660     0.14800
N541        N  0.45781144  0.33309786  0.66368456    -0.01500
C542        C  0.45307832  0.02801054  0.62865316     0.01100
C543        C  0.45257384  0.07527490  0.64334176    -0.21800
C544        C  0.44651303  0.07202424  0.69160150    -0.22000
C545        C  0.44572735  0.02375028  0.70554258     0.01000
H546        H  0.45332635  0.10672276  0.61974654     0.14700
H547        H  0.44439727  0.10209150  0.71507799     0.14800
N548        N  0.33495866  0.12640647  0.66351027    -0.01500
C549        C  0.64592381  0.08428938  0.63149759     0.01100
C550        C  0.60462508  0.03237543  0.64595096    -0.21800
C551        C  0.60865331  0.02971775  0.69401096    -0.22000
C552        C  0.65184674  0.08126161  0.70826453    -0.00200
H553        H  0.57650016  0.99939292  0.62246889     0.14700
H554        H  0.58132937  0.99489782  0.71698497     0.14800
O555        O  0.60936035  0.08334279  0.90640906    -0.76500
C556        C  0.53886931  0.19154775  0.91359712     0.84500
O557        O  0.50096908  0.99561623  0.88319000    -0.77700
O558        O  0.43877551  0.04079500  0.78835367    -0.79100
O559        O  0.60474408  0.22521225  0.78323599    -0.78900
O560        O  0.67048134  0.17009017  0.88311889    -0.77600
Zn561      Zn  0.55741645  0.11070098  0.88569649     1.55700
O562        O  0.51207230  0.18104791  0.76711750    -0.79000
Cd563      Cd  0.63345069  0.17203681  0.81582055     1.59700
Cd564      Cd  0.54438123  0.03449626  0.81784023     1.59600
O565        O  0.67126589  0.14807440  0.76711381    -0.79000
O566        O  0.55767205  0.11050718  0.82130957    -1.89500
Cd567      Cd  0.49433980  0.12312117  0.81802407     1.59900
O568        O  0.62672687  0.05738528  0.79022385    -0.78900
O569        O  0.49760278  0.16491048  0.88379020    -0.77600
C570        C  0.47488922  0.01134134  0.91265195     0.85000
C571        C  0.65538058  0.12849675  0.91274754     0.84600
O572        O  0.58358099  0.18937913  0.90849767    -0.76500
C573        C  0.56281863  0.20965639  0.75356613     0.85400
O574        O  0.47833250  0.05868355  0.90718759    -0.76600
C575        C  0.65486712  0.09662355  0.75886600     0.85600
C576        C  0.45308346  0.01594968  0.75620869     0.85900
O577        O  0.48800862  0.99942419  0.76495137    -0.79000
O578        O  0.30415839  0.05105327  0.42767772    -0.76500
C579        C  0.41679585  0.32026197  0.42282754     0.84500
O580        O  0.55206694  0.27509380  0.45396657    -0.77700
O581        O  0.59960556  0.21314802  0.54472847    -0.79100
O582        O  0.45393721  0.05278910  0.54672122    -0.78900
O583        O  0.38815484  0.11528726  0.45418470    -0.77600
Zn584      Zn  0.66616581  0.99960308  0.44789695     1.55700
O585        O  0.40826736  0.96192816  0.56927633    -0.79000
Cd586      Cd  0.39445721  0.07610984  0.51914131     1.59700
Cd587      Cd  0.59126226  0.32023121  0.51914152     1.59600
O588        O  0.70847905  0.11318406  0.56887503    -0.79000
O589        O  0.66649754  0.99952164  0.51254002    -1.89500
Cd590      Cd  0.34728898  0.27332895  0.51875886     1.59900
O591        O  0.61647633  0.06596995  0.54962484    -0.78900
O592        O  0.39273978  0.27984102  0.45394055    -0.77600
C593        C  0.56819465  0.25021410  0.42341578     0.85000
C594        C  0.34739060  0.09914249  0.42340031     0.84600
O595        O  0.41153171  0.36332338  0.42669519    -0.76500
C596        C  0.44280714  0.01332893  0.57792618     0.85400
O597        O  0.61576320  0.25401955  0.42839166    -0.76600
C598        C  0.65725136  0.09328230  0.58020142     0.85600
C599        C  0.57176292  0.22377679  0.57674882     0.85900
O600        O  0.56107958  0.26366135  0.57213204    -0.79000
C601        C  0.66776049  0.38437300  0.99752745     0.82200
N602        N  0.38377105  0.38184551  0.99735641    -0.76100
C603        C  0.38314686  0.33173907  0.99743757     0.84600
N604        N  0.33248035  0.61632866  0.99632802    -0.76100
C605        C  0.61586024  0.61762319  0.99825377     0.84700
N606        N  0.61830279  0.66900500  0.99813398    -0.77800
C607        C  0.49707377  0.55829407  0.66991650     0.82200
N608        N  0.49214852  0.60549396  0.67004665    -0.76100
C609        C  0.44111001  0.60266717  0.66926944     0.84600
N610        N  0.39374569  0.55061489  0.66871135    -0.76100
C611        C  0.39665620  0.50219042  0.66926130     0.84700
N612        N  0.44875550  0.50676322  0.66935768    -0.77800
C613        C  0.55105843  0.49415728  0.33370028     0.82200
N614        N  0.60194687  0.49624591  0.33374243    -0.76100
C615        C  0.60618143  0.44829511  0.33335479     0.84600
N616        N  0.55738805  0.39754815  0.33395092    -0.76100
C617        C  0.50525422  0.39317414  0.33397316     0.84700
N618        N  0.50318954  0.44194946  0.33444570    -0.77800
N619        N  0.56116096  0.56487354  0.99959950    -0.01500
C620        C  0.53032251  0.53521122  0.03894183     0.01100
C621        C  0.47841320  0.49224894  0.02596168    -0.21800
C622        C  0.47491012  0.49456883  0.97801600    -0.22000
C623        C  0.52604013  0.53594459  0.96197828     0.01000
H624        H  0.44641525  0.46277003  0.04956532     0.14700
H625        H  0.44061680  0.46595764  0.95542824     0.14800
N626        N  0.55319762  0.56371625  0.67020003    -0.01500
C627        C  0.58829235  0.57346284  0.70863651     0.01100
C628        C  0.64000122  0.58249519  0.69406836    -0.21800
C629        C  0.63694557  0.57572650  0.64596534    -0.22000
C630        C  0.58459242  0.56408604  0.63186920     0.01000
H631        H  0.67516272  0.59036345  0.71677739     0.14700
H632        H  0.66984937  0.58113018  0.62223088     0.14800
N633        N  0.54711580  0.54605509  0.33411391    -0.01500
C634        C  0.54242789  0.57635006  0.29638836     0.01100
C635        C  0.53222925  0.61702833  0.31278415    -0.21800
C636        C  0.52881149  0.61398385  0.36024914    -0.22000
C637        C  0.54157660  0.57365976  0.37352775     0.01000
H638        H  0.52741395  0.64616157  0.29111383     0.14700
H639        H  0.52444522  0.64327968  0.38330234     0.14800
N640        N  0.43579190  0.32948343  0.99859816    -0.01500
C641        C  0.46562387  0.66182308  0.03633518     0.01100
C642        C  0.50720232  0.65067467  0.02388547    -0.21800
C643        C  0.50439808  0.31079400  0.97726049    -0.22000
C644        C  0.46475425  0.32308330  0.96097688     0.01000
H645        H  0.53541641  0.64661615  0.04794611     0.14700
H646        H  0.53298118  0.30457725  0.95506198     0.14800
N647        N  0.66174560  0.45159899  0.33354398    -0.01500
C648        C  0.35985484  0.45360843  0.37204303     0.01100
C649        C  0.41179160  0.46317892  0.35859332    -0.21800
C650        C  0.41133422  0.45971443  0.31111653    -0.22000
C651        C  0.36170038  0.45339915  0.29493699     0.01000
H652        H  0.44478980  0.46655304  0.38190220     0.14700
H653        H  0.44458946  0.46242228  0.28928545     0.14800
N654        N  0.45336590  0.33737867  0.33468486    -0.01500
C655        C  0.42231503  0.63855018  0.37006963     0.01100
C656        C  0.37853511  0.58780724  0.35608038    -0.21800
C657        C  0.37521539  0.58948298  0.30862061    -0.22000
C658        C  0.42000109  0.63843941  0.29290575     0.01000
H659        H  0.34895394  0.55478104  0.37932295     0.14700
H660        H  0.34388670  0.55728196  0.28634930     0.14800
O661        O  0.49371977  0.52564266  0.22890396    -0.76500
C662        C  0.42895054  0.63784927  0.24065963     0.84500
O663        O  0.38836854  0.44400176  0.21621314    -0.77700
O664        O  0.32575499  0.48573563  0.11914781    -0.79100
O665        O  0.49272922  0.67431372  0.11893375    -0.78900
O666        O  0.55487183  0.61446476  0.21787560    -0.77600
Zn667      Zn  0.44309527  0.55672287  0.20905775     1.55700
O668        O  0.40137889  0.63290978  0.09811981    -0.79000
Cd669      Cd  0.52158750  0.61909665  0.14825638     1.59700
Cd670      Cd  0.42887596  0.47823510  0.14795802     1.59600
O671        O  0.56506439  0.59922604  0.10130532    -0.79000
O672        O  0.44361596  0.55602059  0.14542631    -1.89500
Cd673      Cd  0.38066310  0.57086106  0.14618637     1.59900
O674        O  0.51424545  0.50792654  0.12153491    -0.78900
O675        O  0.38467449  0.61118413  0.21387996    -0.77600
C676        C  0.36218304  0.46240417  0.24275301     0.85000
C677        C  0.53615747  0.56940295  0.24384845     0.84600
O678        O  0.47319962  0.63887855  0.22730257    -0.76500
C679        C  0.45315099  0.66150819  0.08721633     0.85400
O680        O  0.36173500  0.50589946  0.22926519    -0.76600
C681        C  0.54169533  0.54752658  0.09002557     0.85600
C682        C  0.33870599  0.45862319  0.08793795     0.85900
O683        O  0.36730421  0.43564883  0.09956099    -0.79000
N684        N  0.66995815  0.43926534  0.99856217    -0.01500
C685        C  0.33860036  0.47024930  0.03691825     0.01100
C686        C  0.34889782  0.52252746  0.02387145    -0.21800
C687        C  0.68897157  0.52683507  0.97774305    -0.22000
C688        C  0.67855702  0.47558652  0.96118704     0.01000
H689        H  0.35187051  0.55467207  0.04746993     0.14700
H690        H  0.69564496  0.56186478  0.95567267     0.14800
N691        N  0.43712087  0.65409812  0.66907249    -0.01500
C692        C  0.46545479  0.36724497  0.62500087     0.01100
C693        C  0.47850897  0.42036725  0.63935399    -0.21800
C694        C  0.47517081  0.41889376  0.68761043    -0.22000
C695        C  0.46128465  0.36592120  0.70194143     0.01000
H696        H  0.48508504  0.45509669  0.61664024     0.14700
H697        H  0.48291737  0.45290358  0.71082923     0.14800
N698        N  0.34547143  0.44650005  0.66957153    -0.01500
C699        C  0.63991280  0.42717744  0.62885564     0.01100
C700        C  0.59275999  0.37950320  0.64381750    -0.21800
C701        C  0.59672972  0.37648168  0.69195715    -0.22000
C702        C  0.64524875  0.42391062  0.70561529    -0.00200
H703        H  0.56100392  0.34887477  0.62040283     0.14700
H704        H  0.56702325  0.34410367  0.71546300     0.14800
O705        O  0.60946236  0.41949295  0.90592850    -0.76500
C706        C  0.53966612  0.52745115  0.91295244     0.84500
O707        O  0.50355761  0.33351765  0.88305030    -0.77700
O708        O  0.44394003  0.38071734  0.78313042    -0.79100
O709        O  0.61195667  0.57120733  0.79048161    -0.78900
O710        O  0.67267076  0.50554188  0.88282546    -0.77600
Zn711      Zn  0.55757723  0.44714555  0.88510252     1.55700
O712        O  0.52135223  0.52494432  0.76700783    -0.79000
Cd713      Cd  0.63449059  0.51134091  0.81760999     1.59700
Cd714      Cd  0.54599508  0.37261955  0.81743859     1.59600
O715        O  0.67004340  0.49074120  0.76474352    -0.79000
O716        O  0.55840333  0.44862050  0.82069534    -1.89500
Cd717      Cd  0.49693018  0.46286501  0.81543340     1.59900
O718        O  0.62893878  0.40035337  0.78853769    -0.78900
O719        O  0.49854522  0.50154188  0.88281209    -0.77600
C720        C  0.47641351  0.34784395  0.91260981     0.85000
C721        C  0.65656963  0.46347223  0.91204996     0.84600
O722        O  0.58462682  0.52595268  0.90727099    -0.76500
C723        C  0.57280522  0.56035497  0.75910936     0.85400
O724        O  0.47854149  0.39466391  0.90738323    -0.76600
C725        C  0.65355142  0.43927375  0.75618694     0.85600
C726        C  0.45941207  0.35454686  0.75316413     0.85900
O727        O  0.48832989  0.33257686  0.76632267    -0.79000
O728        O  0.30175073  0.38314687  0.42579180    -0.76500
C729        C  0.41693912  0.65259882  0.41985758     0.84500
O730        O  0.55166519  0.60885364  0.45242031    -0.77700
O731        O  0.60098383  0.55098856  0.54996583    -0.79100
O732        O  0.45408841  0.38853566  0.54454488    -0.78900
O733        O  0.38603371  0.44783422  0.45136376    -0.77600
Zn734      Zn  0.66602237  0.33455112  0.44793199     1.55700
O735        O  0.40363344  0.29936016  0.57178925    -0.79000
Cd736      Cd  0.39363523  0.40966204  0.51574746     1.59700
Cd737      Cd  0.59085738  0.65306824  0.51722232     1.59600
O738        O  0.70519416  0.44829262  0.56888419    -0.79000
O739        O  0.66696381  0.33587049  0.51253633    -1.89500
Cd740      Cd  0.34794512  0.60341963  0.51564100     1.59900
O741        O  0.61405952  0.40272732  0.54713772    -0.78900
O742        O  0.39237399  0.61098781  0.44985770    -0.77600
C743        C  0.56693967  0.58373883  0.42147630     0.85000
C744        C  0.34497836  0.43117834  0.42094053     0.84600
O745        O  0.41371634  0.69650116  0.42624708    -0.76500
C746        C  0.44354315  0.34989389  0.57643099     0.85400
O747        O  0.61498145  0.58819691  0.42490116    -0.76600
C748        C  0.65389558  0.43134461  0.57798822     0.85600
C749        C  0.57437507  0.56514492  0.58064433     0.85900
O750        O  0.55401289  0.59604419  0.56914046    -0.79000
C751        C  0.66845565  0.71854139  0.99700553     0.82200
N752        N  0.38385220  0.71524777  0.99776086    -0.76100
C753        C  0.38366772  0.66536153  0.99588299     0.84600
N754        N  0.33189037  0.94976605  0.99739768    -0.76100
C755        C  0.61572949  0.94989135  0.99792594     0.84700
N756        N  0.61760372  0.00097467  0.99845877    -0.77800
C757        C  0.49446008  0.88698435  0.66582741     0.82200
N758        N  0.49584598  0.93762562  0.66697356    -0.76100
C759        C  0.44749141  0.94050532  0.66678995     0.84600
N760        N  0.39710526  0.89128418  0.66651064    -0.76100
C761        C  0.39400321  0.84009401  0.66563041     0.84700
N762        N  0.44315196  0.83873701  0.66546242    -0.77800
C763        C  0.55284939  0.82753423  0.33235813     0.82200
N764        N  0.60286687  0.82806969  0.33291523    -0.76100
C765        C  0.60598606  0.77965649  0.33226003     0.84600
N766        N  0.55651635  0.72930596  0.33223644    -0.76100
C767        C  0.50486462  0.72642499  0.33154425     0.84700
N768        N  0.50414683  0.77598116  0.33225466    -0.77800
N769        N  0.56122422  0.89694212  0.99921216    -0.01500
C770        C  0.53022012  0.86778540  0.03861772     0.01100
C771        C  0.47782592  0.82558173  0.02586177    -0.21800
C772        C  0.47428597  0.82776816  0.97791895    -0.22000
C773        C  0.52577947  0.86833035  0.96170053     0.01000
H774        H  0.44531010  0.79707232  0.04966316     0.14700
H775        H  0.43947974  0.79969717  0.95550943     0.14800
N776        N  0.54642394  0.88396195  0.66572715    -0.01500
C777        C  0.57823666  0.88592138  0.70429062     0.01100
C778        C  0.62248468  0.87954210  0.69045808    -0.21800
C779        C  0.61884892  0.87207713  0.64237343    -0.22000
C780        C  0.57374369  0.87665827  0.62749815     0.01000
H781        H  0.65277292  0.87868523  0.71420923     0.14700
H782        H  0.64768201  0.86714700  0.61929402     0.14800
N783        N  0.55133908  0.88075972  0.33254449    -0.01500
C784        C  0.55018722  0.91281920  0.29448882     0.01100
C785        C  0.54683459  0.95794283  0.31044839    -0.21800
C786        C  0.54262816  0.95487599  0.35798240    -0.22000
C787        C  0.54900811  0.91065062  0.37169834     0.01000
H788        H  0.54599258  0.98928967  0.28819579     0.14700
H789        H  0.53992804  0.98476366  0.38140074     0.14800
N790        N  0.43649337  0.66343683  0.99684095    -0.01500
C791        C  0.46536630  0.99591193  0.03816993     0.01100
C792        C  0.50688554  0.98460599  0.02581362    -0.21800
C793        C  0.50495599  0.64436182  0.97599095    -0.22000
C794        C  0.46468826  0.65561146  0.95940857     0.01000
H795        H  0.53596134  0.98187915  0.04970941     0.14700
H796        H  0.53345968  0.63784338  0.95393035     0.14800
N797        N  0.66130183  0.78250632  0.33262021    -0.01500
C798        C  0.36347574  0.79024364  0.37498598     0.01100
C799        C  0.41657958  0.80312713  0.36164677    -0.21800
C800        C  0.41641164  0.80065248  0.31417344    -0.22000
C801        C  0.36560028  0.79057558  0.29779005     0.01000
H802        H  0.45037129  0.80752891  0.38456769     0.14700
H803        H  0.45056818  0.80627080  0.29243534     0.14800
N804        N  0.45180211  0.67150889  0.33115689    -0.01500
C805        C  0.42513080  0.97187257  0.37362647     0.01100
C806        C  0.38295605  0.92001119  0.35989144    -0.21800
C807        C  0.38006397  0.92095505  0.31237496    -0.22000
C808        C  0.42332800  0.97071584  0.29649037     0.01000
H809        H  0.35330330  0.88687591  0.38305772     0.14700
H810        H  0.34957521  0.88810483  0.29027383     0.14800
O811        O  0.49768159  0.86001397  0.22858240    -0.76500
C812        C  0.43220005  0.97083589  0.24432243     0.84500
O813        O  0.39177337  0.77855206  0.21928910    -0.77700
O814        O  0.32701232  0.81975318  0.12215098    -0.79100
O815        O  0.49333902  0.00902266  0.12048996    -0.78900
O816        O  0.55841566  0.94872287  0.21566194    -0.77600
Zn817      Zn  0.44577025  0.89028091  0.21041044     1.55700
O818        O  0.40181016  0.96743665  0.10061498    -0.79000
Cd819      Cd  0.52277763  0.95348657  0.14787617     1.59700
Cd820      Cd  0.43044172  0.81245590  0.14994875     1.59600
O821        O  0.56427857  0.93256163  0.10011978    -0.79000
O822        O  0.44512415  0.89041650  0.14676438    -1.89500
Cd823      Cd  0.38226110  0.90525920  0.14883812     1.59900
O824        O  0.51472975  0.84129690  0.12129566    -0.78900
O825        O  0.38785978  0.94494712  0.21745318    -0.77600
C826        C  0.36521995  0.79711857  0.24517471     0.85000
C827        C  0.54071820  0.90424104  0.24220657     0.84600
O828        O  0.47628480  0.97148854  0.23099219    -0.76500
C829        C  0.45342261  0.99623428  0.08914732     0.85400
O830        O  0.36395557  0.83956031  0.23014808    -0.76600
C831        C  0.54162612  0.88072912  0.08951726     0.85600
C832        C  0.33931604  0.79214962  0.09087272     0.85900
O833        O  0.36787186  0.76908928  0.10239285    -0.79000
N834        N  0.67104367  0.77356874  0.99811032    -0.01500
C835        C  0.33848141  0.80331734  0.03973476     0.01100
C836        C  0.34868012  0.85567506  0.02680422    -0.21800
C837        C  0.69089491  0.86126017  0.97696131    -0.22000
C838        C  0.67927442  0.80956884  0.96062871     0.01000
H839        H  0.35201186  0.88809426  0.05036885     0.14700
H840        H  0.69743002  0.89614870  0.95476468     0.14800
N841        N  0.44938091  0.99491969  0.66691185    -0.01500
C842        C  0.43864013  0.68578584  0.63055234     0.01100
C843        C  0.43300543  0.73042468  0.64453941    -0.21800
C844        C  0.42703829  0.72765323  0.69274092    -0.22000
C845        C  0.43183756  0.68243532  0.70743497     0.01000
H846        H  0.43292925  0.76110686  0.62082872     0.14700
H847        H  0.42413949  0.75786020  0.71569061     0.14800
N848        N  0.33908673  0.78820538  0.66566684    -0.01500
C849        C  0.64080363  0.75745013  0.62923887     0.01100
C850        C  0.59353536  0.70973965  0.64434400    -0.21800
C851        C  0.59785260  0.70715571  0.69250382    -0.22000
C852        C  0.64632640  0.75461858  0.70599499    -0.00200
H853        H  0.56144409  0.67872738  0.62130802     0.14700
H854        H  0.56849065  0.67513670  0.71645253     0.14800
O855        O  0.60996311  0.75195991  0.90594019    -0.76500
C856        C  0.53898630  0.85901503  0.91279459     0.84500
O857        O  0.50193798  0.66420519  0.88100977    -0.77700
O858        O  0.43619081  0.70868086  0.78913109    -0.79100
O859        O  0.60493158  0.89656105  0.78665512    -0.78900
O860        O  0.67129832  0.83856550  0.88240826    -0.77600
Zn861      Zn  0.55776255  0.77878414  0.88460464     1.55700
O862        O  0.51357332  0.84832329  0.76544045    -0.79000
Cd863      Cd  0.63369197  0.84208115  0.81611620     1.59700
Cd864      Cd  0.54485262  0.70368747  0.81548604     1.59600
O865        O  0.67235536  0.82099158  0.76585017    -0.79000
O866        O  0.55804501  0.77914763  0.82034911    -1.89500
Cd867      Cd  0.49440325  0.79102814  0.81738806     1.59900
O868        O  0.62840484  0.73036416  0.78863596    -0.78900
O869        O  0.49750803  0.83264172  0.88314684    -0.77600
C870        C  0.47564817  0.67933921  0.91080594     0.85000
C871        C  0.65639837  0.79684790  0.91182330     0.84600
O872        O  0.58389349  0.85746265  0.90689445    -0.76500
C873        C  0.56488229  0.88191420  0.75525022     0.85400
O874        O  0.47859431  0.72650400  0.90573690    -0.76600
C875        C  0.65458396  0.76945538  0.75673519     0.85600
C876        C  0.44837464  0.68204734  0.75710484     0.85900
O877        O  0.48746348  0.67044073  0.76307737    -0.79000
O878        O  0.30468892  0.71729364  0.42683083    -0.76500
C879        C  0.41740306  0.98671254  0.42248533     0.84500
O880        O  0.55271137  0.94063275  0.45181507    -0.77700
O881        O  0.60006775  0.87835969  0.54577410    -0.79100
O882        O  0.45021284  0.71355173  0.54832204    -0.78900
O883        O  0.38915274  0.78013314  0.45377578    -0.77600
Zn884      Zn  0.66558757  0.66748353  0.44701764     1.55700
O885        O  0.40390378  0.62198259  0.56846082    -0.79000
Cd886      Cd  0.39488335  0.74114504  0.51867378     1.59700
Cd887      Cd  0.59030884  0.98366843  0.51815344     1.59600
O888        O  0.70643913  0.77662391  0.57002541    -0.79000
O889        O  0.66678945  0.66727613  0.51180505    -1.89500
Cd890      Cd  0.34910282  0.93951853  0.51878450     1.59900
O891        O  0.61554675  0.73510820  0.54719743    -0.78900
O892        O  0.39227661  0.94569605  0.45291812    -0.77600
C893        C  0.56919986  0.91604141  0.42129978     0.85000
C894        C  0.34846059  0.76511221  0.42310719     0.84600
O895        O  0.41391943  0.03069739  0.42738615    -0.76500
C896        C  0.43583344  0.67327876  0.57945737     0.85400
O897        O  0.61645047  0.91936698  0.42701351    -0.76600
C898        C  0.65535488  0.76166942  0.57856820     0.85600
C899        C  0.57135181  0.88914500  0.57687595     0.85900
O900        O  0.55525348  0.92440075  0.56868239    -0.79000
C901        C  0.00121175  0.05203393  0.99657196     0.82200
N902        N  0.71656334  0.04882436  0.99809218    -0.76100
C903        C  0.71662982  0.99904583  0.99756020     0.84600
N904        N  0.66526676  0.28315968  0.99886912    -0.76100
C905        C  0.94775309  0.28323260  0.99732589     0.84700
N906        N  0.95021677  0.33456992  0.99771594    -0.77800
C907        C  0.82886428  0.22758906  0.66836696     0.82200
N908        N  0.82469171  0.27526806  0.66824612    -0.76100
C909        C  0.77338696  0.27263510  0.66899803     0.84600
N910        N  0.72556962  0.22067884  0.66901870    -0.76100
C911        C  0.72836343  0.17209490  0.66903503     0.84700
N912        N  0.78036228  0.17672510  0.66874438    -0.77800
C913        C  0.88528246  0.15997891  0.33305992     0.82200
N914        N  0.93586754  0.16152623  0.33336308    -0.76100
C915        C  0.93969138  0.11342008  0.33279894     0.84600
N916        N  0.89069374  0.06290106  0.33313516    -0.76100
C917        C  0.83880096  0.05910594  0.33283091     0.84700
N918        N  0.83723866  0.10808868  0.33336548    -0.77800
N919        N  0.89292425  0.23052344  0.99847476    -0.01500
C920        C  0.86221450  0.20084110  0.03785422     0.01100
C921        C  0.80981396  0.15880967  0.02510026    -0.21800
C922        C  0.80586092  0.16148414  0.97722388    -0.22000
C923        C  0.85712220  0.20239407  0.96092865     0.01000
H924        H  0.77768617  0.13001092  0.04895266     0.14700
H925        H  0.77109853  0.13320656  0.95486009     0.14800
N926        N  0.88404651  0.23101084  0.66845602    -0.01500
C927        C  0.91769010  0.23675831  0.70694319     0.01100
C928        C  0.96746977  0.24085669  0.69241938    -0.21800
C929        C  0.96410079  0.23405575  0.64426097    -0.22000
C930        C  0.91394803  0.22851578  0.63012978     0.01000
H931        H  0.00064932  0.24417673  0.71549809     0.14700
H932        H  0.99474303  0.23382861  0.62057840     0.14800
N933        N  0.88211423  0.21225928  0.33322091    -0.01500
C934        C  0.87955738  0.24354296  0.29531314     0.01100
C935        C  0.87338358  0.28706241  0.31123427    -0.21800
C936        C  0.86882935  0.28367529  0.35864088    -0.22000
C937        C  0.87781036  0.24093575  0.37230152     0.01000
H938        H  0.87173004  0.31811165  0.28929477     0.14700
H939        H  0.86564983  0.31356922  0.38176350     0.14800
N940        N  0.76957935  0.99738281  0.99859554    -0.01500
C941        C  0.79888436  0.32895481  0.03805584     0.01100
C942        C  0.84086113  0.31861577  0.02506811    -0.21800
C943        C  0.83757937  0.97790953  0.97709611    -0.22000
C944        C  0.79756002  0.98973674  0.96098414     0.01000
H945        H  0.86959610  0.31501906  0.04880170     0.14700
H946        H  0.86560672  0.97106538  0.95471671     0.14800
N947        N  0.99499204  0.11627747  0.33273505    -0.01500
C948        C  0.69460245  0.11999362  0.37281602     0.01100
C949        C  0.74600299  0.12842988  0.35898187    -0.21800
C950        C  0.74496688  0.12481430  0.31148525    -0.22000
C951        C  0.69562419  0.11944974  0.29566378     0.01000
H952        H  0.77901215  0.13140512  0.38206698     0.14700
H953        H  0.77765502  0.12694866  0.28926025     0.14800
N954        N  0.78649126  0.00377078  0.33294092    -0.01500
C955        C  0.75893716  0.30495113  0.37290291     0.01100
C956        C  0.71714687  0.25258622  0.35962373    -0.21800
C957        C  0.71365876  0.25313412  0.31216064    -0.22000
C958        C  0.75619709  0.30313245  0.29581094     0.01000
H959        H  0.68777907  0.21940958  0.38295576     0.14700
H960        H  0.68311248  0.21984265  0.29048675     0.14800
O961        O  0.82769968  0.19115453  0.22964328    -0.76500
C962        C  0.76414064  0.30310119  0.24348634     0.84500
O963        O  0.72192503  0.10947086  0.21684973    -0.77700
O964        O  0.65897130  0.15207067  0.12133820    -0.79100
O965        O  0.82669527  0.34064712  0.12043699    -0.78900
O966        O  0.88981050  0.27948596  0.21653581    -0.77600
Zn967      Zn  0.77696655  0.22207481  0.21026577     1.55700
O968        O  0.73514244  0.29937948  0.10042258    -0.79000
Cd969      Cd  0.85512301  0.28462122  0.14829811     1.59700
Cd970      Cd  0.76205606  0.14402057  0.14853088     1.59600
O971        O  0.89707955  0.26447958  0.10026611    -0.79000
O972        O  0.77718827  0.22195972  0.14664252    -1.89500
Cd973      Cd  0.71454695  0.23717375  0.14855999     1.59900
O974        O  0.84663818  0.17300672  0.12033156    -0.78900
O975        O  0.71944501  0.27682338  0.21710829    -0.77600
C976        C  0.69576135  0.12793762  0.24335079     0.85000
C977        C  0.87117693  0.23499938  0.24317507     0.84600
O978        O  0.80803182  0.30389218  0.22947966    -0.76500
C979        C  0.78680244  0.32814562  0.08912833     0.85400
O980        O  0.69512929  0.17117683  0.22951428    -0.76600
C981        C  0.87388665  0.21283420  0.08891804     0.85600
C982        C  0.67117257  0.12467089  0.08978479     0.85900
O983        O  0.69974076  0.10151159  0.10085472    -0.79000
N984        N  0.00297247  0.10664858  0.99801984    -0.01500
C985        C  0.67040692  0.13624086  0.03882252     0.01100
C986        C  0.68061525  0.18863480  0.02614549    -0.21800
C987        C  0.02162913  0.19399614  0.97731685    -0.22000
C988        C  0.01074997  0.14269645  0.96070675     0.01000
H989        H  0.68384984  0.22073252  0.04998867     0.14700
H990        H  0.02826870  0.22891954  0.95514140     0.14800
N991        N  0.76938777  0.32410144  0.66955475    -0.01500
C992        C  0.78414746  0.02808422  0.62866410     0.01100
C993        C  0.78441851  0.07590166  0.64325912    -0.21800
C994        C  0.77779617  0.07228899  0.69146756    -0.22000
C995        C  0.77608699  0.02367455  0.70549881     0.01000
H996        H  0.78601181  0.10803110  0.61994202     0.14700
H997        H  0.77581341  0.10218286  0.71521400     0.14800
N998        N  0.67735718  0.11603178  0.66963074    -0.01500
C999        C  0.96948756  0.09508744  0.62634808     0.01100
C1000       C  0.91907237  0.05099728  0.64117795    -0.21800
C1001       C  0.92224162  0.04805631  0.68935745    -0.22000
C1002       C  0.97338371  0.09131867  0.70324494    -0.00200
H1003       H  0.88504022  0.02237793  0.61818830     0.14700
H1004       H  0.89027768  0.01899458  0.71315268     0.14800
O1005       O  0.94041584  0.08580413  0.90658109    -0.76500
C1006       C  0.87006035  0.19336833  0.91176905     0.84500
O1007       O  0.83445341  0.99852674  0.88265408    -0.77700
O1008       O  0.76886179  0.04238964  0.78789093    -0.79100
O1009       O  0.93979203  0.23388668  0.78894556    -0.78900
O1010       O  0.00279424  0.17166610  0.88243901    -0.77600
Zn1011     Zn  0.88795442  0.11231854  0.88497892     1.55700
O1012       O  0.85001329  0.18355143  0.76346418    -0.79000
Cd1013     Cd  0.96345418  0.17532213  0.81720805     1.59700
Cd1014     Cd  0.87480192  0.03631468  0.81625268     1.59600
O1015       O  0.00036341  0.15584742  0.76454050    -0.79000
O1016       O  0.88765369  0.11203866  0.82071824    -1.89500
Cd1017     Cd  0.82564151  0.12563882  0.81567820     1.59900
O1018       O  0.95730009  0.06439924  0.78551806    -0.78900
O1019       O  0.82859828  0.16724785  0.88194840    -0.77600
C1020       C  0.80775111  0.01320555  0.91238049     0.85000
C1021       C  0.98748610  0.13006061  0.91200484     0.84600
O1022       O  0.91479708  0.19155722  0.90587586    -0.76500
C1023       C  0.90096627  0.22172667  0.75692845     0.85400
O1024       O  0.80924775  0.05970596  0.90691018    -0.76600
C1025       C  0.98265348  0.10458370  0.75422552     0.85600
C1026       C  0.78177761  0.01563313  0.75651164     0.85900
O1027       O  0.81454944  0.99693861  0.76651524    -0.79000
O1028       O  0.63633671  0.04996989  0.42680615    -0.76500
C1029       C  0.75048310  0.32037472  0.42128222     0.84500
O1030       O  0.88403317  0.27321027  0.45140776    -0.77700
O1031       O  0.93034752  0.21678933  0.54787585    -0.79100
O1032       O  0.78606307  0.05197571  0.54626530    -0.78900
O1033       O  0.72097200  0.11413866  0.45212318    -0.77600
Zn1034     Zn  0.99812289  0.00057785  0.44760217     1.55700
O1035       O  0.73799337  0.96138934  0.57000258    -0.79000
Cd1036     Cd  0.72789923  0.07597171  0.51690465     1.59700
Cd1037     Cd  0.92239289  0.31865278  0.51564182     1.59600
O1038       O  0.03573476  0.11251034  0.56772454    -0.79000
O1039       O  0.99831748  0.00047342  0.51223672    -1.89500
Cd1040     Cd  0.68103643  0.27380045  0.51636539     1.59900
O1041       O  0.94493365  0.06814279  0.54476991    -0.78900
O1042       O  0.72632927  0.27990602  0.45220187    -0.77600
C1043       C  0.90036618  0.24850449  0.42102590     0.85000
C1044       C  0.67981560  0.09780709  0.42182021     0.84600
O1045       O  0.74523912  0.36347706  0.42515792    -0.76500
C1046       C  0.77356759  0.01276984  0.57808068     0.85400
O1047       O  0.94831297  0.25296531  0.42562922    -0.76600
C1048       C  0.98447006  0.09684963  0.57583171     0.85600
C1049       C  0.90432328  0.23108401  0.57903503     0.85900
O1050       O  0.88478085  0.26286492  0.56811587    -0.79000
C1051       C  0.00025004  0.38417098  0.99773044     0.82200
N1052       N  0.71667850  0.38207544  0.99781766    -0.76100
C1053       C  0.71643808  0.33215935  0.99796286     0.84600
N1054       N  0.66538624  0.61706452  0.99807745    -0.76100
C1055       C  0.94960875  0.61744192  0.99912439     0.84700
N1056       N  0.95144212  0.66850881  0.99926173    -0.77800
C1057       C  0.82864520  0.55627779  0.66588757     0.82200
N1058       N  0.82980995  0.60671144  0.66461849    -0.76100
C1059       C  0.78141060  0.60946127  0.66412921     0.84600
N1060       N  0.73084406  0.56013712  0.66539775    -0.76100
C1061       C  0.72813039  0.50901208  0.66651744     0.84700
N1062       N  0.77752166  0.50808251  0.66725537    -0.77800
C1063       C  0.88535316  0.49425342  0.33335718     0.82200
N1064       N  0.93608566  0.49607068  0.33413005    -0.76100
C1065       C  0.94020022  0.44808170  0.33386359     0.84600
N1066       N  0.89133238  0.39730459  0.33397761    -0.76100
C1067       C  0.83926492  0.39325136  0.33317947     0.84700
N1068       N  0.83737664  0.44215543  0.33343669    -0.77800
N1069       N  0.89511798  0.56435468  0.00053449    -0.01500
C1070       C  0.86426139  0.53478501  0.03995252     0.01100
C1071       C  0.81230548  0.49174832  0.02712977    -0.21800
C1072       C  0.80865581  0.49416163  0.97925110    -0.22000
C1073       C  0.85969818  0.53547034  0.96300925     0.01000
H1074       H  0.78010083  0.46255347  0.05080161     0.14700
H1075       H  0.77408243  0.46596931  0.95673837     0.14800
N1076       N  0.88079687  0.55367840  0.66554136    -0.01500
C1077       C  0.91275532  0.55539518  0.70395850     0.01100
C1078       C  0.95851881  0.55178688  0.68958601    -0.21800
C1079       C  0.95544594  0.54620559  0.64128771    -0.22000
C1080       C  0.90899455  0.54849595  0.62697276     0.01000
H1081       H  0.98937974  0.55124599  0.71303847     0.14700
H1082       H  0.98489048  0.54324404  0.61758393     0.14800
N1083       N  0.88184471  0.54641402  0.33370287    -0.01500
C1084       C  0.87729150  0.57674236  0.29589296     0.01100
C1085       C  0.86950621  0.61908252  0.31214341    -0.21800
C1086       C  0.86707634  0.61677512  0.35963634    -0.22000
C1087       C  0.87819556  0.57537856  0.37300262     0.01000
H1088       H  0.86537506  0.64867398  0.29032694     0.14700
H1089       H  0.86354487  0.64649963  0.38274995     0.14800
N1090       N  0.76926199  0.33033705  0.99880651    -0.01500
C1091       C  0.79783824  0.66161074  0.03794712     0.01100
C1092       C  0.83991247  0.65112148  0.02550541    -0.21800
C1093       C  0.83809060  0.31225046  0.97715511    -0.22000
C1094       C  0.79736799  0.32298226  0.96108129     0.01000
H1095       H  0.86839912  0.64752674  0.04947994     0.14700
H1096       H  0.86617600  0.30568469  0.95460690     0.14800
N1097       N  0.99586857  0.45172690  0.33454419    -0.01500
C1098       C  0.69452787  0.45522964  0.37270905     0.01100
C1099       C  0.74633580  0.46454654  0.35904282    -0.21800
C1100       C  0.74541560  0.46074705  0.31157436    -0.22000
C1101       C  0.69573873  0.45450827  0.29556399     0.01000
H1102       H  0.77937698  0.46752968  0.38211811     0.14700
H1103       H  0.77820455  0.46269710  0.28963536     0.14800
N1104       N  0.78715542  0.33767176  0.33354431    -0.01500
C1105       C  0.75762244  0.63816522  0.37172896     0.01100
C1106       C  0.71542584  0.58622058  0.35818053    -0.21800
C1107       C  0.71202513  0.58718041  0.31075834    -0.22000
C1108       C  0.75506693  0.63699015  0.29461513     0.01000
H1109       H  0.68577678  0.55313230  0.38140909     0.14700
H1110       H  0.68113314  0.55428508  0.28894200     0.14800
O1111       O  0.82678293  0.52519350  0.22909255    -0.76500
C1112       C  0.76277673  0.63693847  0.24218551     0.84500
O1113       O  0.72174546  0.44372940  0.21689664    -0.77700
O1114       O  0.65803802  0.48499184  0.12028686    -0.79100
O1115       O  0.82422996  0.67405565  0.12071116    -0.78900
O1116       O  0.88791334  0.61393257  0.21737349    -0.77600
Zn1117     Zn  0.77592472  0.55602557  0.20918715     1.55700
O1118       O  0.73308808  0.63278769  0.09960580    -0.79000
Cd1119     Cd  0.85381995  0.61902580  0.14863028     1.59700
Cd1120     Cd  0.76178811  0.47816930  0.14854252     1.59600
O1121       O  0.89728094  0.59958249  0.10157420    -0.79000
O1122       O  0.77604442  0.55575135  0.14560483    -1.89500
Cd1123     Cd  0.71279613  0.57034023  0.14751798     1.59900
O1124       O  0.84752412  0.50840578  0.12261523    -0.78900
O1125       O  0.71794812  0.61030595  0.21597863    -0.77600
C1126       C  0.69545131  0.46220556  0.24316744     0.85000
C1127       C  0.86956923  0.56906313  0.24349415     0.84600
O1128       O  0.80672868  0.63808992  0.22790847    -0.76500
C1129       C  0.78493201  0.66122622  0.08877485     0.85400
O1130       O  0.69426082  0.50499480  0.22883498    -0.76600
C1131       C  0.87501735  0.54778967  0.09093435     0.85600
C1132       C  0.67096101  0.45796309  0.08891866     0.85900
O1133       O  0.70002454  0.43538488  0.10027312    -0.79000
N1134       N  0.00246894  0.43902476  0.99895407    -0.01500
C1135       C  0.67083889  0.46985008  0.03796243     0.01100
C1136       C  0.68146753  0.52239685  0.02542902    -0.21800
C1137       C  0.02105082  0.52630667  0.97759031    -0.22000
C1138       C  0.00987968  0.47468742  0.96136920     0.01000
H1139       H  0.68412483  0.55428133  0.04925667     0.14700
H1140       H  0.02789760  0.56130262  0.95534488     0.14800
N1141       N  0.78430330  0.66429965  0.66326802    -0.01500
C1142       C  0.77103225  0.35620772  0.63131099     0.01100
C1143       C  0.76381141  0.39972964  0.64555011    -0.21800
C1144       C  0.75702883  0.39609039  0.69369559    -0.22000
C1145       C  0.76230930  0.35112268  0.70814528     0.01000
H1146       H  0.76204969  0.42952677  0.62186351     0.14700
H1147       H  0.75224628  0.42504297  0.71680567     0.14800
N1148       N  0.67368279  0.45641237  0.66687733    -0.01500
C1149       C  0.96769253  0.43122162  0.62519766     0.01100
C1150       C  0.91501324  0.39049256  0.63980478    -0.21800
C1151       C  0.91754419  0.38735348  0.68789576    -0.22000
C1152       C  0.97055244  0.42677204  0.70198506    -0.00200
H1153       H  0.87992394  0.36283702  0.61717958     0.14700
H1154       H  0.88416170  0.36010035  0.71128030     0.14800
O1155       O  0.94071462  0.41706341  0.90636954    -0.76500
C1156       C  0.87245489  0.52677153  0.91366537     0.84500
O1157       O  0.83276759  0.33051965  0.88207658    -0.77700
O1158       O  0.76538714  0.37715216  0.79006834    -0.79100
O1159       O  0.93861421  0.56288870  0.78638002    -0.78900
O1160       O  0.00250122  0.50342869  0.88287126    -0.77600
Zn1161     Zn  0.88880140  0.44460963  0.88520247     1.55700
O1162       O  0.84727913  0.51558806  0.76478900    -0.79000
Cd1163     Cd  0.96463122  0.50678149  0.81664090     1.59700
Cd1164     Cd  0.87266341  0.36836721  0.81514769     1.59600
O1165       O  0.00440199  0.48739250  0.76625697    -0.79000
O1166       O  0.88800735  0.44459075  0.82075226    -1.89500
Cd1167     Cd  0.82595487  0.45908545  0.81781838     1.59900
O1168       O  0.95461954  0.39504988  0.78328832    -0.78900
O1169       O  0.83078071  0.50153557  0.88394701    -0.77600
C1170       C  0.80706312  0.34596982  0.91224332     0.85000
C1171       C  0.98729986  0.46177596  0.91238923     0.84600
O1172       O  0.91654232  0.52380870  0.90743184    -0.76500
C1173       C  0.89876012  0.54907122  0.75494749     0.85400
O1174       O  0.80970409  0.39299666  0.90697498    -0.76600
C1175       C  0.98182562  0.43639704  0.75327009     0.85600
C1176       C  0.77569292  0.34856278  0.75854827     0.85900
O1177       O  0.81105804  0.33236874  0.76609496    -0.79000
O1178       O  0.63617234  0.38441986  0.42608048    -0.76500
C1179       C  0.74936685  0.65316811  0.42036751     0.84500
O1180       O  0.88719488  0.60980748  0.45207007    -0.77700
O1181       O  0.93227875  0.54723979  0.54475307    -0.79100
O1182       O  0.78265379  0.38453721  0.54911349    -0.78900
O1183       O  0.72052852  0.44871997  0.45218228    -0.77600
Zn1184     Zn  0.99882114  0.33262421  0.44722616     1.55700
O1185       O  0.73646102  0.29280501  0.56923795    -0.79000
Cd1186     Cd  0.72747750  0.41188128  0.51807898     1.59700
Cd1187     Cd  0.92492921  0.65278144  0.51785790     1.59600
O1188       O  0.03455942  0.43878563  0.57059537    -0.79000
O1189       O  0.99829739  0.33214048  0.51179490    -1.89500
Cd1190     Cd  0.68232568  0.60664175  0.51727535     1.59900
O1191       O  0.94505338  0.40064085  0.54433130    -0.78900
O1192       O  0.72473981  0.61239633  0.45109797    -0.77600
C1193       C  0.90226393  0.58416556  0.42142018     0.85000
C1194       C  0.67961881  0.43238028  0.42153202     0.84600
O1195       O  0.74498602  0.69672078  0.42471518    -0.76500
C1196       C  0.76833729  0.34410816  0.58016736     0.85400
O1197       O  0.94972870  0.58748019  0.42563733    -0.76600
C1198       C  0.98414275  0.42814294  0.57603469     0.85600
C1199       C  0.90428374  0.55857130  0.57617810     0.85900
O1200       O  0.88701560  0.59275608  0.56745404    -0.79000
C1201       C  0.00125074  0.71840607  0.99755174     0.82200
N1202       N  0.71720040  0.71594146  0.99694619    -0.76100
C1203       C  0.71664018  0.66588775  0.99699015     0.84600
N1204       N  0.66556410  0.94988653  0.99784334    -0.76100
C1205       C  0.94931124  0.95117570  0.99705925     0.84700
N1206       N  0.95130972  0.00228965  0.99704444    -0.77800
C1207       C  0.82882819  0.88968555  0.66650066     0.82200
N1208       N  0.82868532  0.93938652  0.66661017    -0.76100
C1209       C  0.77952350  0.94097186  0.66657992     0.84600
N1210       N  0.72986830  0.89109161  0.66645566    -0.76100
C1211       C  0.72827756  0.84040685  0.66624394     0.84700
N1212       N  0.77812364  0.84065440  0.66599790    -0.77800
C1213       C  0.88549271  0.82745269  0.33324620     0.82200
N1214       N  0.93609270  0.82899937  0.33346137    -0.76100
C1215       C  0.94001223  0.78092736  0.33293586     0.84600
N1216       N  0.89091911  0.73025704  0.33295855    -0.76100
C1217       C  0.83888944  0.72647366  0.33252780     0.84700
N1218       N  0.83737943  0.77552997  0.33338287    -0.77800
N1219       N  0.89480556  0.89827582  0.99837593    -0.01500
C1220       C  0.86423646  0.86858352  0.03778489     0.01100
C1221       C  0.81220094  0.82575032  0.02501053    -0.21800
C1222       C  0.80833346  0.82819843  0.97712735    -0.22000
C1223       C  0.85934921  0.86956024  0.96088056     0.01000
H1224       H  0.78027600  0.79640548  0.04877176     0.14700
H1225       H  0.77381738  0.79970014  0.95468364     0.14800
N1226       N  0.88188912  0.88870640  0.66683360    -0.01500
C1227       C  0.91464747  0.89216117  0.70525306     0.01100
C1228       C  0.96014709  0.88807338  0.69109256    -0.21800
C1229       C  0.95643260  0.88063724  0.64292051    -0.22000
C1230       C  0.90980441  0.88282940  0.62851037     0.01000
H1231       H  0.99117601  0.88858028  0.71495344     0.14700
H1232       H  0.98586151  0.87704039  0.61957678     0.14800
N1233       N  0.88232117  0.87975765  0.33353594    -0.01500
C1234       C  0.87956488  0.91090979  0.29555507     0.01100
C1235       C  0.87217578  0.95355255  0.31155363    -0.21800
C1236       C  0.86763508  0.95022628  0.35902776    -0.22000
C1237       C  0.87738484  0.90805548  0.37274322     0.01000
H1238       H  0.86951210  0.98379337  0.28942981     0.14700
H1239       H  0.86370529  0.97967551  0.38216624     0.14800
N1240       N  0.76919532  0.66370525  0.99834447    -0.01500
C1241       C  0.79891766  0.99549481  0.03785880     0.01100
C1242       C  0.84024750  0.98411387  0.02496843    -0.21800
C1243       C  0.83821360  0.64550258  0.97751812    -0.22000
C1244       C  0.79790280  0.65673361  0.96095772     0.01000
H1245       H  0.86889639  0.98023064  0.04863555     0.14700
H1246       H  0.86690110  0.63924922  0.95545672     0.14800
N1247       N  0.99564691  0.78427351  0.33324521    -0.01500
C1248       C  0.69410683  0.78707578  0.37201089     0.01100
C1249       C  0.74628590  0.79719417  0.35868819    -0.21800
C1250       C  0.74592111  0.79371492  0.31120778    -0.22000
C1251       C  0.69601551  0.78643813  0.29483163     0.01000
H1252       H  0.77958159  0.80124521  0.38200376     0.14700
H1253       H  0.77953920  0.79736711  0.28941897     0.14800
N1254       N  0.78637106  0.67106342  0.33254648    -0.01500
C1255       C  0.75750849  0.97105973  0.37209389     0.01100
C1256       C  0.71482863  0.91938396  0.35843726    -0.21800
C1257       C  0.71199996  0.92025430  0.31089009    -0.22000
C1258       C  0.75550441  0.96985520  0.29492763     0.01000
H1259       H  0.68508117  0.88633623  0.38164717     0.14700
H1260       H  0.68152619  0.88739279  0.28877405     0.14800
O1261       O  0.82914735  0.85925815  0.22887108    -0.76500
C1262       C  0.76400394  0.97006361  0.24263711     0.84500
O1263       O  0.72346807  0.77722193  0.21616115    -0.77700
O1264       O  0.66035001  0.82002065  0.11970906    -0.79100
O1265       O  0.82717942  0.00826041  0.12017655    -0.78900
O1266       O  0.89077375  0.94785000  0.21676405    -0.77600
Zn1267     Zn  0.77805079  0.88986536  0.20937135     1.55700
O1268       O  0.73564678  0.96776331  0.10041043    -0.79000
Cd1269     Cd  0.85673115  0.95292745  0.14786888     1.59700
Cd1270     Cd  0.76379596  0.81223450  0.14786977     1.59600
O1271       O  0.89910818  0.93268306  0.10006149    -0.79000
O1272       O  0.77869609  0.89008724  0.14574833    -1.89500
Cd1273     Cd  0.71556422  0.90476472  0.14755551     1.59900
O1274       O  0.84857768  0.84131477  0.12032915    -0.78900
O1275       O  0.71955206  0.94365246  0.21603582    -0.77600
C1276       C  0.69678797  0.79526401  0.24248768     0.85000
C1277       C  0.87211463  0.90309072  0.24312419     0.84600
O1278       O  0.80826370  0.97152018  0.22873790    -0.76500
C1279       C  0.78725985  0.99570823  0.08886597     0.85400
O1280       O  0.69619204  0.83855095  0.22870505    -0.76600
C1281       C  0.87581295  0.88097110  0.08881751     0.85600
C1282       C  0.67313168  0.79284482  0.08840832     0.85900
O1283       O  0.70185540  0.76994230  0.09979890    -0.79000
N1284       N  0.00287738  0.77305006  0.99866314    -0.01500
C1285       C  0.67305508  0.80468598  0.03746568     0.01100
C1286       C  0.68460088  0.85748318  0.02479590    -0.21800
C1287       C  0.02127309  0.86030972  0.97752591    -0.22000
C1288       C  0.01085052  0.80903337  0.96115499     0.01000
H1289       H  0.68857904  0.88989125  0.04859830     0.14700
H1290       H  0.02799227  0.89519472  0.95523395     0.14800
N1291       N  0.78004151  0.99482042  0.66693802    -0.01500
C1292       C  0.79067945  0.69796716  0.62455736     0.01100
C1293       C  0.79656694  0.74845283  0.63883192    -0.21800
C1294       C  0.79160878  0.74619800  0.68715488    -0.22000
C1295       C  0.78417406  0.69540747  0.70154190     0.01000
H1296       H  0.80150963  0.78213505  0.61559214     0.14700
H1297       H  0.79558601  0.77869906  0.71091622     0.14800
N1298       N  0.67449599  0.78709192  0.66711607    -0.01500
C1299       C  0.98350581  0.75100131  0.63159971     0.01100
C1300       C  0.94223637  0.69901363  0.64593351    -0.21800
C1301       C  0.94509853  0.69677226  0.69410832    -0.22000
C1302       C  0.98775767  0.74867291  0.70846717    -0.00200
H1303       H  0.91416741  0.66610527  0.62252927     0.14700
H1304       H  0.91636390  0.66248727  0.71692900     0.14800
O1305       O  0.94171618  0.75215184  0.90622023    -0.76500
C1306       C  0.87249521  0.86087090  0.91178506     0.84500
O1307       O  0.83395049  0.66469257  0.88234001    -0.77700
O1308       O  0.77365672  0.71262207  0.78356339    -0.79100
O1309       O  0.94110253  0.89943428  0.78754797    -0.78900
O1310       O  0.00450604  0.83790614  0.88218782    -0.77600
Zn1311     Zn  0.89010823  0.77983835  0.88498269     1.55700
O1312       O  0.84987571  0.85485927  0.76635697    -0.79000
Cd1313     Cd  0.96607118  0.84158558  0.81589081     1.59700
Cd1314     Cd  0.87708176  0.70420727  0.81709691     1.59600
O1315       O  0.99914809  0.81651266  0.76393754    -0.79000
O1316       O  0.89022239  0.78011207  0.82075997    -1.89500
Cd1317     Cd  0.82824623  0.79424065  0.81564934     1.59900
O1318       O  0.95937322  0.72687118  0.78981847    -0.78900
O1319       O  0.83093523  0.83455845  0.88213313    -0.77600
C1320       C  0.80825237  0.68025901  0.91231217     0.85000
C1321       C  0.98868965  0.79637358  0.91201338     0.84600
O1322       O  0.91734344  0.85923561  0.90581652    -0.76500
C1323       C  0.90137863  0.88711679  0.75630853     0.85400
O1324       O  0.81129602  0.72753312  0.90715931    -0.76600
C1325       C  0.98690710  0.76564326  0.75798260     0.85600
C1326       C  0.78859626  0.68696227  0.75264385     0.85900
O1327       O  0.82188207  0.66901996  0.76335012    -0.79000
O1328       O  0.63559590  0.71766766  0.42626082    -0.76500
C1329       C  0.75055559  0.98607422  0.42112948     0.84500
O1330       O  0.88332554  0.94024968  0.45234323    -0.77700
O1331       O  0.93097359  0.88082189  0.54593068    -0.79100
O1332       O  0.78812072  0.72061805  0.54240320    -0.78900
O1333       O  0.72027683  0.78178179  0.45160443    -0.77600
Zn1334     Zn  0.00012130  0.66714186  0.44725499     1.55700
O1335       O  0.74290399  0.63038994  0.56660162    -0.79000
Cd1336     Cd  0.72787202  0.74338380  0.51618931     1.59700
Cd1337     Cd  0.92226987  0.98559102  0.51715686     1.59600
O1338       O  0.04558712  0.78062942  0.56860441    -0.79000
O1339       O  0.00058894  0.66713034  0.51202151    -1.89500
Cd1340     Cd  0.68188505  0.93863554  0.51706970     1.59900
O1341       O  0.95345434  0.73511791  0.54985964    -0.78900
O1342       O  0.72669020  0.94529188  0.45189850    -0.77600
C1343       C  0.89988443  0.91590524  0.42169544     0.85000
C1344       C  0.67922588  0.76530334  0.42113637     0.84600
O1345       O  0.74579477  0.02934942  0.42593859    -0.76500
C1346       C  0.77784079  0.68196907  0.57417564     0.85400
O1347       O  0.94792777  0.92070809  0.42633407    -0.76600
C1348       C  0.99453458  0.76103082  0.58040778     0.85600
C1349       C  0.90499481  0.89378335  0.57807558     0.85900
O1350       O  0.88981534  0.92995494  0.57044503    -0.79000
loop_ 
_geom_bond_atom_site_label_1 
_geom_bond_atom_site_label_2 
_geom_bond_distance 
_geom_bond_site_symmetry_2 
_ccdc_geom_bond_type 
C1           N84   1.468       .  S
C1          N452   1.371       .  A
C1          N306   1.360       .  A
N2            C3   1.361       .  A
N2          C901   1.371       .  A
C3           N40   1.469   1_545  S
C3          N304   1.368   1_445  A
N4          C153   1.370   1_655  A
N4          C905   1.361       .  A
C5           N19   1.469       .  S
C5            N6   1.368       .  A
C5          N454   1.362       .  A
N6          C151   1.360       .  A
C7           N26   1.461       .  S
C7            N8   1.361       .  A
C7           N12   1.363       .  A
N8            C9   1.358       .  A
C9           N91   1.459       .  S
C9           N10   1.360       .  A
N10          C11   1.361       .  A
C11          N98   1.462       .  S
C11          N12   1.365       .  A
C13          N33   1.475       .  S
C13          N14   1.363       .  A
C13          N18   1.368       .  A
N14          C15   1.372       .  A
C15          N47   1.476       .  S
C15          N16   1.362       .  A
N16          C17   1.369       .  A
C17          N54   1.475       .  S
C17          N18   1.360       .  A
N19          C23   1.380       .  A
N19          C20   1.378   1_556  A
C20          C21   1.361       .  A
C20          C81   1.467       .  S
C21          C22   1.350   1_554  A
C21          H24   1.070       .  S
C22          C23   1.362       .  A
C22          H25   1.076       .  S
C23         C106   1.474       .  S
N26          C30   1.373       .  A
N26          C27   1.371       .  A
C27          C28   1.364       .  A
C27         C123   1.464       .  S
C28          C29   1.361       .  A
C28          H31   1.077       .  S
C29          C30   1.362       .  A
C29          H32   1.076       .  S
C30         C149   1.465       .  S
N33          C37   1.388       .  A
N33          C34   1.389       .  A
C34          C35   1.355       .  A
C34          C77   1.484       .  S
C35          C36   1.334       .  A
C35          H38   1.064       .  S
C36          C37   1.362       .  A
C36          H39   1.080       .  S
C37         C143   1.474       .  S
N40          C44   1.378       .  A
N40         C341   1.377   1_556  A
C41         N190   1.378   1_554  A
C41          C42   1.362       .  A
C41          C79   1.466       .  S
C42         C193   1.351   1_554  A
C42          H45   1.072       .  S
C43          C44   1.363       .  A
C43         C342   1.351   1_556  A
C43          H46   1.077       .  S
C44         C120   1.471   1_565  S
N47         C501   1.390       .  A
N47         C498   1.390       .  A
C48         N947   1.387   1_455  A
C48          C49   1.360       .  A
C48         C144   1.475       .  S
C49          C50   1.337       .  A
C49          H52   1.079       .  S
C50          C51   1.356       .  A
C50          H53   1.067       .  S
C51         N947   1.388   1_455  A
C51          C76   1.483       .  S
N54         C358   1.389   1_545  A
N54         C355   1.389   1_545  A
C55         N204   1.389       .  A
C55          C56   1.360       .  A
C55         C129   1.476       .  S
C56          C57   1.336       .  A
C56          H59   1.080       .  S
C57          C58   1.355       .  A
C57          H60   1.065       .  S
C58         N204   1.390       .  A
C58          C62   1.487       .  S
O61          C77   1.251       .  A
O61         Zn67   2.027       .  S
C62          O78   1.252       .  A
C62          O75   1.296       .  A
O63          C76   1.295       .  A
O63         Cd70   2.169       .  S
O64          C82   1.305   1_655  A
O64         Cd73   2.183   1_655  S
O65          C79   1.304       .  A
O65         Cd69   2.178       .  S
O66          C77   1.295       .  A
O66         Cd69   2.179       .  S
Zn67         O78   2.032       .  S
Zn67         O80   2.025       .  S
Zn67         O72   1.786       .  S
O68          C79   1.265       .  A
O68         Cd73   2.018       .  S
Cd69         O71   2.019       .  S
Cd69         O72   1.955       .  S
Cd70         O74   2.180       .  S
Cd70         O83   2.017       .  S
Cd70         O72   1.956       .  S
O71          C81   1.265       .  A
O72         Cd73   1.958       .  S
Cd73         O75   2.178       .  S
O74          C81   1.305       .  A
C76          O80   1.252       .  A
C82          C85   1.467       .  S
C82          O83   1.264       .  A
N84          C88   1.380       .  A
N84         C535   1.379   1_556  A
C85         N984   1.378   1_554  A
C85          C86   1.360       .  A
C86         C987   1.351   1_554  A
C86          H89   1.069       .  S
C87          C88   1.361       .  A
C87         C536   1.351   1_556  A
C87          H90   1.075       .  S
C88         C121   1.477       .  S
N91         C245   1.370       .  A
N91         C242   1.373       .  A
C92         N391   1.372   1_545  A
C92          C93   1.360       .  A
C92         C146   1.466       .  S
C93          C94   1.358       .  A
C93          H96   1.068       .  S
C94          C95   1.369       .  A
C94          H97   1.080       .  S
C95         N391   1.378   1_545  A
C95         C126   1.470       .  S
N98        C1002   1.371   1_455  A
N98         C999   1.377   1_455  A
C99         N548   1.376       .  A
C99         C100   1.371       .  A
C99         C148   1.466       .  S
C100        C101   1.355       .  A
C100        H103   1.081       .  S
C101        C102   1.361       .  A
C101        H104   1.065       .  S
C102        N548   1.371       .  A
C102        C125   1.465       .  S
O105        C121   1.259       .  A
O105       Zn111   2.000       .  S
C106        O122   1.258       .  A
C106        O119   1.297       .  A
O107        C120   1.297   1_565  A
O107       Cd114   2.149   1_565  S
O108        C126   1.300       .  A
O108       Cd117   2.154       .  S
O109        C123   1.301       .  A
O109       Cd113   2.156       .  S
O110        C121   1.296       .  A
O110       Cd113   2.154       .  S
Zn111       O122   1.998       .  S
Zn111       O124   1.991       .  S
Zn111       O116   1.804       .  S
O112        C123   1.266       .  A
O112       Cd117   1.999       .  S
Cd113       O115   2.004       .  S
Cd113       O116   1.928       .  S
Cd114       O118   2.166       .  S
Cd114       O127   2.008   1_545  S
Cd114       O116   1.908       .  S
O115        C125   1.262       .  A
O116       Cd117   1.923       .  S
Cd117       O119   2.153       .  S
O118        C125   1.302       .  A
C120        O124   1.260       .  A
C126        O127   1.265   1_545  A
O128        C144   1.259   1_655  A
O128      Zn1034   2.002       .  S
C129        O145   1.258       .  A
C129        O142   1.300       .  A
O130        C143   1.298       .  A
O130       Cd137   2.150       .  S
O131        C149   1.300       .  A
O131       Cd590   2.158       .  S
O132        C146   1.303       .  A
O132       Cd136   2.172       .  S
O133        C144   1.299       .  A
O133       Cd136   2.158       .  S
Zn134       O578   2.003       .  S
Zn134       O895   2.000       .  S
Zn134       O447   2.004   1_545  S
Zn134       O139   1.812       .  S
O135        C146   1.263   1_565  A
O135       Cd440   1.998       .  S
Cd136      O1038   2.000       .  S
Cd136      O1039   1.907   1_455  S
Cd137       O150   2.002       .  S
Cd137       O291   2.170       .  S
Cd137       O289   1.909       .  S
O138        C148   1.268       .  A
O138       Cd586   1.997       .  S
O139       Cd586   1.900       .  S
O139       Cd437   1.921   1_545  S
O139       Cd890   1.910   1_545  S
Cd140       O142   2.166       .  S
Cd140      O1031   2.171   1_455  S
Cd140       O285   2.001       .  S
Cd140      O1189   1.904   1_455  S
O141        C148   1.300       .  A
O141       Cd437   2.157   1_545  S
C143        O147   1.259       .  A
O145      Zn1184   1.999   1_455  S
O147       Zn284   1.999       .  S
C149        O150   1.263       .  A
C151        N234   1.467       .  S
C151        N602   1.369       .  A
N152       C1051   1.368       .  A
N152        C153   1.360       .  A
C153        N190   1.469       .  S
N154        C303   1.370   1_655  A
N154       C1055   1.362       .  A
C155        N169   1.470       .  S
C155        N604   1.361       .  A
C155        N156   1.370       .  A
N156        C301   1.362       .  A
C157        N176   1.466       .  S
C157        N158   1.360       .  A
C157        N162   1.370       .  A
N158        C159   1.365       .  A
C159        N241   1.464       .  S
C159        N160   1.357       .  A
N160        C161   1.363       .  A
C161        N248   1.468       .  S
C161        N162   1.361       .  A
C163        N183   1.474       .  S
C163        N164   1.358       .  A
C163        N168   1.372       .  A
N164        C165   1.365       .  A
C165        N197   1.472       .  S
C165        N166   1.361       .  A
N166        C167   1.371       .  A
C167        N204   1.475       .  S
C167        N168   1.364       .  A
N169        C173   1.379       .  A
N169        C170   1.379   1_556  A
C170        C171   1.362       .  A
C170        C231   1.466       .  S
C171        C172   1.350   1_554  A
C171        H174   1.071       .  S
C172        C173   1.362       .  A
C172        H175   1.076       .  S
C173        C256   1.473       .  S
N176        C180   1.377       .  A
N176        C177   1.374       .  A
C177        C178   1.361       .  A
C177        C273   1.469       .  S
C178        C179   1.359       .  A
C178        H181   1.070       .  S
C179        C180   1.368       .  A
C179        H182   1.080       .  S
C180        C299   1.468       .  S
N183        C187   1.387       .  A
N183        C184   1.389       .  A
C184        C185   1.356       .  A
C184        C227   1.485       .  S
C185        C186   1.338       .  A
C185        H188   1.068       .  S
C186        C187   1.360       .  A
C186        H189   1.079       .  S
C187        C293   1.475       .  S
N190        C194   1.379       .  A
C191        N340   1.378   1_554  A
C191        C192   1.361       .  A
C191        C229   1.467       .  S
C192        C343   1.350   1_554  A
C192        H195   1.071       .  S
C193        C194   1.362       .  A
C193        H196   1.075       .  S
C194        C270   1.473       .  S
N197        C651   1.388       .  A
N197        C648   1.387       .  A
C198       N1097   1.388   1_455  A
C198        C199   1.363       .  A
C198        C294   1.475       .  S
C199        C200   1.334       .  A
C199        H202   1.081       .  S
C200        C201   1.354       .  A
C200        H203   1.062       .  S
C201       N1097   1.388   1_455  A
C201        C226   1.484       .  S
C205        N354   1.387       .  A
C205        C206   1.361       .  A
C205        C279   1.473       .  S
C206        C207   1.335       .  A
C206        H209   1.079       .  S
C207        C208   1.357       .  A
C207        H210   1.068       .  S
C208        N354   1.388       .  A
C208        C212   1.482       .  S
O211        C227   1.251       .  A
O211       Zn217   2.028       .  S
C212        O228   1.252       .  A
C212        O225   1.296       .  A
O213        C226   1.296       .  A
O213       Cd220   2.184       .  S
O214        C232   1.305   1_655  A
O214       Cd223   2.183   1_655  S
O215        C229   1.305       .  A
O215       Cd219   2.181       .  S
O216        C227   1.295       .  A
O216       Cd219   2.172       .  S
Zn217       O228   2.025       .  S
Zn217       O230   2.027       .  S
Zn217       O222   1.784       .  S
O218        C229   1.265       .  A
O218       Cd223   2.016       .  S
Cd219       O221   2.014       .  S
Cd219       O222   1.953       .  S
Cd220       O224   2.181       .  S
Cd220       O233   2.019       .  S
Cd220       O222   1.955       .  S
O221        C231   1.265       .  A
O222       Cd223   1.952       .  S
Cd223       O225   2.175       .  S
O224        C231   1.305       .  A
C226        O230   1.251       .  A
C232        C235   1.469       .  S
C232        O233   1.265       .  A
N234        C238   1.378       .  A
N234        C685   1.376   1_556  A
C235       N1134   1.379   1_554  A
C235        C236   1.361       .  A
C236       C1137   1.350   1_554  A
C236        H239   1.071       .  S
C237        C686   1.352   1_556  A
C237        C238   1.362       .  A
C237        H240   1.076       .  S
C238        C271   1.472       .  S
N241        C395   1.372       .  A
N241        C392   1.376       .  A
C242        C243   1.363       .  A
C242        C296   1.467       .  S
C243        C244   1.360       .  A
C243        H246   1.078       .  S
C244        C245   1.362       .  A
C244        H247   1.072       .  S
C245        C276   1.464       .  S
N248       C1152   1.373   1_455  A
N248       C1149   1.377   1_455  A
C249        N698   1.371       .  A
C249        C250   1.359       .  A
C249        C298   1.464       .  S
C250        C251   1.358       .  A
C250        H253   1.068       .  S
C251        C252   1.369       .  A
C251        H254   1.080       .  S
C252        N698   1.376       .  A
C252        C275   1.468       .  S
O255        C271   1.259       .  A
O255       Zn261   1.994       .  S
C256        O272   1.259       .  A
C256        O269   1.296       .  A
O257        C270   1.296       .  A
O257       Cd264   2.149       .  S
O258        C276   1.302       .  A
O258       Cd267   2.161       .  S
O259        C273   1.302       .  A
O259       Cd263   2.163       .  S
O260        C271   1.296       .  A
O260       Cd263   2.153       .  S
Zn261       O272   1.997       .  S
Zn261       O274   2.000       .  S
Zn261       O266   1.805       .  S
O262        C273   1.263       .  A
O262       Cd267   2.012       .  S
Cd263       O265   2.004       .  S
Cd263       O266   1.907       .  S
Cd264       O268   2.156       .  S
Cd264       O277   2.001       .  S
Cd264       O266   1.927       .  S
O265        C275   1.266       .  A
O266       Cd267   1.928       .  S
Cd267       O269   2.152       .  S
O268        C275   1.300       .  A
C270        O274   1.259       .  A
C276        O277   1.266       .  A
O278        C294   1.260   1_655  A
O278      Zn1184   1.999       .  S
C279        O295   1.259       .  A
C279        O292   1.298       .  A
O280        C293   1.298       .  A
O280       Cd287   2.159       .  S
O281        C299   1.302       .  A
O281       Cd740   2.165       .  S
O282        C296   1.299       .  A
O282       Cd286   2.154       .  S
O283        C294   1.298       .  A
O283       Cd286   2.151       .  S
Zn284       O728   2.006       .  S
Zn284       O595   2.001       .  S
Zn284       O289   1.815       .  S
O285        C296   1.264       .  A
Cd286      O1188   1.991       .  S
Cd286      O1189   1.897   1_455  S
Cd287       O441   2.162       .  S
Cd287       O300   1.997       .  S
Cd287       O439   1.903       .  S
O288        C298   1.263       .  A
O288       Cd736   1.995       .  S
O289       Cd736   1.921       .  S
O289       Cd590   1.900       .  S
Cd290      O1181   2.163   1_455  S
Cd290       O435   1.996       .  S
Cd290       O292   2.156       .  S
Cd290      O1339   1.904       .  S
O291        C298   1.303       .  A
C293        O297   1.259       .  A
O295      Zn1334   2.000       .  S
O297       Zn434   2.003       .  S
C299        O300   1.267       .  A
C301        N384   1.470   1_556  S
C301        N752   1.370       .  A
N302       C1201   1.371       .  A
N302        C303   1.362       .  A
C303        N340   1.470       .  S
N304       C1205   1.360       .  A
C305        N319   1.468       .  S
C305        N754   1.362       .  A
C305        N306   1.368   1_565  A
C307        N326   1.461       .  S
C307        N308   1.365       .  A
C307        N312   1.362       .  A
N308        C309   1.367       .  A
C309        N391   1.466       .  S
C309        N310   1.363       .  A
N310        C311   1.358       .  A
C311        N398   1.464       .  S
C311        N312   1.360       .  A
C313        N333   1.473       .  S
C313        N314   1.361       .  A
C313        N318   1.370       .  A
N314        C315   1.369       .  A
C315        N347   1.476       .  S
C315        N316   1.361       .  A
N316        C317   1.370       .  A
C317        N354   1.474       .  S
C317        N318   1.363       .  A
N319        C323   1.379       .  A
N319        C320   1.378   1_556  A
C320        C321   1.361       .  A
C320        C381   1.467       .  S
C321        C322   1.352   1_554  A
C321        H324   1.071       .  S
C322        C323   1.363       .  A
C322        H325   1.077       .  S
C323        C406   1.474       .  S
N326        C330   1.370       .  A
N326        C327   1.376       .  A
C327        C328   1.368       .  A
C327        C423   1.469       .  S
C328        C329   1.360       .  A
C328        H331   1.080       .  S
C329        C330   1.359       .  A
C329        H332   1.069       .  S
C330        C449   1.465       .  S
N333        C337   1.387       .  A
N333        C334   1.390       .  A
C334        C335   1.357       .  A
C334        C377   1.485       .  S
C335        C336   1.335       .  A
C335        H338   1.067       .  S
C336        C337   1.361       .  A
C336        H339   1.079       .  S
C337        C443   1.474       .  S
N340        C344   1.380       .  A
C341        C342   1.362       .  A
C341        C379   1.466       .  S
C342        H345   1.070       .  S
C343        C344   1.363       .  A
C343        H346   1.077       .  S
C344        C420   1.474       .  S
N347        C801   1.389       .  A
N347        C798   1.390       .  A
C348       N1247   1.389   1_455  A
C348        C349   1.363       .  A
C348        C444   1.474       .  S
C349        C350   1.333       .  A
C349        H352   1.080       .  S
C350        C351   1.356       .  A
C350        H353   1.065       .  S
C351       N1247   1.389   1_455  A
C351        C376   1.482       .  S
C355        C356   1.361       .  A
C355        C429   1.476       .  S
C356        C357   1.334       .  A
C356        H359   1.079       .  S
C357        C358   1.357       .  A
C357        H360   1.068       .  S
C358        C362   1.483       .  S
O361        C377   1.252       .  A
O361       Zn367   2.029       .  S
C362        O378   1.252       .  A
C362        O375   1.295       .  A
O363        C376   1.295       .  A
O363       Cd370   2.176       .  S
O364        C382   1.305   1_655  A
O364       Cd373   2.181   1_655  S
O365        C379   1.305   1_545  A
O365       Cd369   2.180   1_545  S
O366        C377   1.295       .  A
O366       Cd369   2.174       .  S
Zn367       O378   2.027       .  S
Zn367       O380   2.026       .  S
Zn367       O372   1.786       .  S
O368        C379   1.265       .  A
O368       Cd373   2.014       .  S
Cd369       O371   2.015       .  S
Cd369       O372   1.955       .  S
Cd370       O374   2.181       .  S
Cd370       O383   2.018       .  S
Cd370       O372   1.955       .  S
O371        C381   1.265       .  A
O372       Cd373   1.955       .  S
Cd373       O375   2.172       .  S
O374        C381   1.305       .  A
C376        O380   1.251       .  A
C382        C385   1.468       .  S
C382        O383   1.265       .  A
N384        C388   1.380   1_554  A
N384        C835   1.380       .  A
C385       N1284   1.379   1_554  A
C385        C386   1.361       .  A
C386       C1287   1.351   1_554  A
C386        H389   1.070       .  S
C387        C836   1.350   1_556  A
C387        C388   1.361       .  A
C387        H390   1.075       .  S
C388        C421   1.475       .  S
C392        C393   1.369       .  A
C392        C446   1.467       .  S
C393        C394   1.360       .  A
C393        H396   1.080       .  S
C394        C395   1.361       .  A
C394        H397   1.071       .  S
C395        C426   1.468       .  S
N398       C1302   1.376   1_455  A
N398       C1299   1.371   1_455  A
C399        N848   1.375       .  A
C399        C400   1.363       .  A
C399        C448   1.465       .  S
C400        C401   1.359       .  A
C400        H403   1.078       .  S
C401        C402   1.363       .  A
C401        H404   1.072       .  S
C402        N848   1.371       .  A
C402        C425   1.466       .  S
O405        C421   1.259       .  A
O405       Zn411   1.999       .  S
C406        O422   1.259       .  A
C406        O419   1.297       .  A
O407        C420   1.297       .  A
O407       Cd414   2.154       .  S
O408        C426   1.301       .  A
O408       Cd417   2.161       .  S
O409        C423   1.300       .  A
O409       Cd413   2.160       .  S
O410        C421   1.297       .  A
O410       Cd413   2.157       .  S
Zn411       O422   1.993       .  S
Zn411       O424   1.997       .  S
Zn411       O416   1.806       .  S
O412        C423   1.266       .  A
O412       Cd417   2.004       .  S
Cd413       O415   2.007       .  S
Cd413       O416   1.926       .  S
Cd414       O418   2.160       .  S
Cd414       O427   2.012       .  S
Cd414       O416   1.925       .  S
O415        C425   1.266       .  A
O416       Cd417   1.908       .  S
Cd417       O419   2.155       .  S
O418        C425   1.301       .  A
C420        O424   1.259       .  A
C426        O427   1.263       .  A
O428        C444   1.259   1_655  A
O428      Zn1334   2.004   1_655  S
C429        O445   1.259   1_565  A
C429        O442   1.298       .  A
O430        C443   1.296       .  A
O430       Cd437   2.145       .  S
O431        C449   1.303       .  A
O431       Cd890   2.167       .  S
O432        C446   1.301       .  A
O432       Cd436   2.159       .  S
O433        C444   1.298       .  A
O433       Cd436   2.149       .  S
Zn434       O878   2.000       .  S
Zn434       O745   2.001       .  S
Zn434       O439   1.811       .  S
O435        C446   1.267       .  A
Cd436      O1338   1.994       .  S
Cd436      O1339   1.921       .  S
Cd437       O450   1.999       .  S
O438        C448   1.263       .  A
O438       Cd886   1.992       .  S
O439       Cd886   1.905       .  S
O439       Cd740   1.921       .  S
Cd440      O1331   2.159   1_455  S
Cd440       O442   2.154       .  S
Cd440      O1039   1.923   1_465  S
O441        C448   1.301       .  A
C443        O447   1.259       .  A
O445      Zn1034   2.005   1_455  S
C449        O450   1.264       .  A
C451        N534   1.470       .  S
C451        N902   1.370       .  A
C451        N756   1.362       .  A
N452        C453   1.362   1_545  A
C453        N490   1.470       .  S
C453        N754   1.371       .  A
N454        C603   1.371       .  A
C455        N469   1.471       .  S
C455        N904   1.361       .  A
C455        N456   1.372       .  A
N456        C601   1.363       .  A
C457        N476   1.465       .  S
C457        N458   1.359       .  A
C457        N462   1.367       .  A
N458        C459   1.367       .  A
C459        N541   1.465       .  S
C459        N460   1.359       .  A
N460        C461   1.366       .  A
C461        N548   1.466       .  S
C461        N462   1.359       .  A
C463        N483   1.472       .  S
C463        N464   1.362       .  A
C463        N468   1.370       .  A
N464        C465   1.370       .  A
C465        N497   1.473       .  S
C465        N466   1.359       .  A
N466        C467   1.365       .  A
C467        N504   1.471       .  S
C467        N468   1.361       .  A
N469        C473   1.379       .  A
N469        C470   1.379   1_556  A
C470        C471   1.361       .  A
C470        C531   1.467       .  S
C471        C472   1.350   1_554  A
C471        H474   1.071       .  S
C472        C473   1.363       .  A
C472        H475   1.076       .  S
C473        C556   1.475       .  S
N476        C480   1.376       .  A
N476        C477   1.371       .  A
C477        C478   1.361       .  A
C477        C573   1.466       .  S
C478        C479   1.355       .  A
C478        H481   1.065       .  S
C479        C480   1.370       .  A
C479        H482   1.081       .  S
C480        C599   1.467       .  S
N483        C487   1.388       .  A
N483        C484   1.389       .  A
C484        C485   1.357       .  A
C484        C527   1.486       .  S
C485        C486   1.337       .  A
C485        H488   1.067       .  S
C486        C487   1.361       .  A
C486        H489   1.079       .  S
C487        C593   1.476       .  S
N490        C494   1.380       .  A
N490        C791   1.378   1_556  A
C491        N640   1.379   1_554  A
C491        C492   1.361       .  A
C491        C529   1.470       .  S
C492        C643   1.350   1_554  A
C492        H495   1.070       .  S
C493        C792   1.350   1_556  A
C493        C494   1.362       .  A
C493        H496   1.076       .  S
C494        C570   1.474   1_565  S
N497        C951   1.389       .  A
N497        C948   1.387       .  A
C498        C499   1.361       .  A
C498        C594   1.478       .  S
C499        C500   1.336       .  A
C499        H502   1.080       .  S
C500        C501   1.355       .  A
C500        H503   1.064       .  S
C501        C526   1.488       .  S
N504        C808   1.387   1_545  A
N504        C805   1.387   1_545  A
C505        N654   1.389       .  A
C505        C506   1.361       .  A
C505        C579   1.476       .  S
C506        C507   1.335       .  A
C506        H509   1.080       .  S
C507        C508   1.354       .  A
C507        H510   1.064       .  S
C508        N654   1.389       .  A
C508        C512   1.486       .  S
O511        C527   1.253       .  A
O511       Zn517   2.029       .  S
C512        O528   1.251       .  A
C512        O525   1.296       .  A
O513        C526   1.296       .  A
O513       Cd520   2.186       .  S
O514        C532   1.305       .  A
O514       Cd523   2.182       .  S
O515        C529   1.305       .  A
O515       Cd519   2.179       .  S
O516        C527   1.295       .  A
O516       Cd519   2.173       .  S
Zn517       O528   2.028       .  S
Zn517       O530   2.029       .  S
Zn517       O522   1.786       .  S
O518        C529   1.265       .  A
O518       Cd523   2.021       .  S
Cd519       O521   2.013       .  S
Cd519       O522   1.954       .  S
Cd520       O524   2.186       .  S
Cd520       O533   2.025       .  S
Cd520       O522   1.959       .  S
O521        C531   1.264       .  A
O522       Cd523   1.957       .  S
Cd523       O525   2.186       .  S
O524        C531   1.306       .  A
C526        O530   1.251       .  A
C532        C535   1.471       .  S
C532        O533   1.266       .  A
N534        C538   1.379       .  A
N534        C985   1.378   1_556  A
C535        C536   1.361       .  A
C536        H539   1.069       .  S
C537        C986   1.351   1_556  A
C537        C538   1.361       .  A
C537        H540   1.076       .  S
C538        C571   1.472       .  S
N541        C695   1.371       .  A
N541        C692   1.377       .  A
C542        N841   1.374   1_545  A
C542        C543   1.362       .  A
C542        C596   1.466       .  S
C543        C544   1.361       .  A
C543        H546   1.076       .  S
C544        C545   1.365       .  A
C544        H547   1.076       .  S
C545        N841   1.372   1_545  A
C545        C576   1.465       .  S
C549        N998   1.374       .  A
C549        C550   1.360       .  A
C549        C598   1.466       .  S
C550        C551   1.357       .  A
C550        H553   1.069   1_545  S
C551        C552   1.369       .  A
C551        H554   1.080   1_545  S
C552        N998   1.378       .  A
C552        C575   1.470       .  S
O555        C571   1.258       .  A
O555       Zn561   1.992       .  S
C556        O572   1.260       .  A
C556        O569   1.295       .  A
O557        C570   1.296   1_565  A
O557       Cd564   2.153   1_565  S
O558        C576   1.300       .  A
O558       Cd567   2.154       .  S
O559        C573   1.303       .  A
O559       Cd563   2.167       .  S
O560        C571   1.297       .  A
O560       Cd563   2.154       .  S
Zn561       O572   2.001       .  S
Zn561       O574   1.995       .  S
Zn561       O566   1.806       .  S
O562        C573   1.262       .  A
O562       Cd567   2.003       .  S
Cd563       O565   2.009       .  S
Cd563       O566   1.912       .  S
Cd564       O568   2.155       .  S
Cd564       O577   2.003   1_545  S
Cd564       O566   1.923       .  S
O565        C575   1.265       .  A
O566       Cd567   1.927       .  S
Cd567       O569   2.147       .  S
O568        C575   1.300       .  A
C570        O574   1.258       .  A
C576        O577   1.267   1_545  A
O578        C594   1.258       .  A
C579        O595   1.259       .  A
C579        O592   1.299       .  A
O580        C593   1.300       .  A
O580       Cd587   2.165       .  S
O581        C599   1.300       .  A
O581      Cd1040   2.154       .  S
O582        C596   1.301       .  A
O582       Cd586   2.163       .  S
O583        C594   1.299       .  A
O583       Cd586   2.163       .  S
Zn584      O1028   2.007   1_565  S
Zn584      O1345   2.001   1_565  S
Zn584       O897   2.004       .  S
Zn584       O589   1.813       .  S
O585        C596   1.263   1_565  A
O585       Cd890   2.000       .  S
Cd587       O741   2.163       .  S
Cd587       O600   2.001       .  S
Cd587       O739   1.900       .  S
O588        C598   1.262       .  A
O588      Cd1036   1.994       .  S
O589      Cd1036   1.920   1_565  S
O589       Cd887   1.908       .  S
O589      Cd1340   1.912       .  S
Cd590       O735   1.998       .  S
Cd590       O592   2.158       .  S
O591        C598   1.304       .  A
O591       Cd887   2.176   1_545  S
C593        O597   1.258       .  A
O597       Zn734   2.001       .  S
C599        O600   1.267       .  A
C601        N684   1.470       .  S
C601       N1052   1.369       .  A
N602        C603   1.360       .  A
C603        N640   1.470       .  S
N604        C753   1.370       .  A
C605        N619   1.469       .  S
C605       N1054   1.360       .  A
C605        N606   1.371       .  A
N606        C751   1.362       .  A
C607        N626   1.465       .  S
C607        N608   1.361       .  A
C607        N612   1.366       .  A
N608        C609   1.357       .  A
C609        N691   1.462       .  S
C609        N610   1.363       .  A
N610        C611   1.364       .  A
C611        N698   1.464       .  S
C611        N612   1.365       .  A
C613        N633   1.474       .  S
C613        N614   1.362       .  A
C613        N618   1.371       .  A
N614        C615   1.371       .  A
C615        N647   1.475       .  S
C615        N616   1.361       .  A
N616        C617   1.368       .  A
C617        N654   1.474       .  S
C617        N618   1.361       .  A
N619        C623   1.378       .  A
N619        C620   1.379   1_556  A
C620        C621   1.362       .  A
C620        C681   1.469       .  S
C621        C622   1.352   1_554  A
C621        H624   1.071       .  S
C622        C623   1.361       .  A
C622        H625   1.076       .  S
C623        C706   1.473       .  S
N626        C630   1.372       .  A
N626        C627   1.377       .  A
C627        C628   1.369       .  A
C627        C723   1.469       .  S
C628        C629   1.358       .  A
C628        H631   1.081       .  S
C629        C630   1.359       .  A
C629        H632   1.068       .  S
C630        C749   1.466       .  S
N633        C637   1.388       .  A
N633        C634   1.388       .  A
C634        C635   1.354       .  A
C634        C677   1.484       .  S
C635        C636   1.334       .  A
C635        H638   1.060       .  S
C636        C637   1.363       .  A
C636        H639   1.081       .  S
C637        C743   1.474       .  S
N640        C644   1.381       .  A
C641        N790   1.377   1_554  A
C641        C642   1.360       .  A
C641        C679   1.466       .  S
C642        C793   1.351   1_554  A
C642        H645   1.071       .  S
C643        C644   1.363       .  A
C643        H646   1.076       .  S
C644        C720   1.478       .  S
N647       C1101   1.389       .  A
N647       C1098   1.389       .  A
C648        C649   1.361       .  A
C648        C744   1.474       .  S
C649        C650   1.334       .  A
C649        H652   1.079       .  S
C650        C651   1.356       .  A
C650        H653   1.067       .  S
C651        C676   1.483       .  S
C655        N804   1.388       .  A
C655        C656   1.359       .  A
C655        C729   1.475       .  S
C656        C657   1.336       .  A
C656        H659   1.078       .  S
C657        C658   1.358       .  A
C657        H660   1.069       .  S
C658        N804   1.391       .  A
C658        C662   1.487       .  S
O661        C677   1.250       .  A
O661       Zn667   2.029       .  S
C662        O678   1.252       .  A
C662        O675   1.295       .  A
O663        C676   1.295       .  A
O663       Cd670   2.174       .  S
O664        C682   1.304       .  A
O664       Cd673   2.178       .  S
O665        C679   1.305       .  A
O665       Cd669   2.182       .  S
O666        C677   1.295       .  A
O666       Cd669   2.184       .  S
Zn667       O678   2.032       .  S
Zn667       O680   2.026       .  S
Zn667       O672   1.785       .  S
O668        C679   1.265       .  A
O668       Cd673   2.013       .  S
Cd669       O671   2.021       .  S
Cd669       O672   1.960       .  S
Cd670       O674   2.180       .  S
Cd670       O683   2.017       .  S
Cd670       O672   1.956       .  S
O671        C681   1.265       .  A
O672       Cd673   1.954       .  S
Cd673       O675   2.170       .  S
O674        C681   1.305       .  A
C676        O680   1.253       .  A
C682        C685   1.466       .  S
C682        O683   1.265       .  A
N684        C688   1.380       .  A
N684       C1135   1.378   1_556  A
C685        C686   1.360       .  A
C686        H689   1.070       .  S
C687       C1136   1.349   1_556  A
C687        C688   1.363       .  A
C687        H690   1.076       .  S
C688        C721   1.473       .  S
N691        C845   1.374       .  A
N691        C842   1.372       .  A
C692        C693   1.370       .  A
C692        C746   1.468       .  S
C693        C694   1.355       .  A
C693        H696   1.081       .  S
C694        C695   1.360       .  A
C694        H697   1.065       .  S
C695        C726   1.465       .  S
C699       N1148   1.374       .  A
C699        C700   1.362       .  A
C699        C748   1.466       .  S
C700        C701   1.360       .  A
C700        H703   1.076       .  S
C701        C702   1.366       .  A
C701        H704   1.076       .  S
C702       N1148   1.372       .  A
C702        C725   1.464       .  S
O705        C721   1.258       .  A
O705       Zn711   1.997       .  S
C706        O722   1.259       .  A
C706        O719   1.297       .  A
O707        C720   1.296       .  A
O707       Cd714   2.152       .  S
O708        C726   1.303       .  A
O708       Cd717   2.169       .  S
O709        C723   1.299       .  A
O709       Cd713   2.153       .  S
O710        C721   1.296       .  A
O710       Cd713   2.150       .  S
Zn711       O722   1.994       .  S
Zn711       O724   2.003       .  S
Zn711       O716   1.806       .  S
O712        C723   1.265       .  A
O712       Cd717   2.008       .  S
Cd713       O715   2.001       .  S
Cd713       O716   1.924       .  S
Cd714       O718   2.156       .  S
Cd714       O727   2.002       .  S
Cd714       O716   1.931       .  S
O715        C725   1.266       .  A
O716       Cd717   1.909       .  S
Cd717       O719   2.154       .  S
O718        C725   1.300       .  A
C720        O724   1.259       .  A
C726        O727   1.262       .  A
O728        C744   1.259       .  A
C729        O745   1.258       .  A
C729        O742   1.299       .  A
O730        C743   1.298       .  A
O730       Cd737   2.148       .  S
O731        C749   1.303       .  A
O731      Cd1190   2.171       .  S
O732        C746   1.301       .  A
O732       Cd736   2.160       .  S
O733        C744   1.297       .  A
O733       Cd736   2.146       .  S
Zn734      O1178   2.001       .  S
Zn734      O1045   2.001       .  S
Zn734       O739   1.812       .  S
O735        C746   1.267       .  A
Cd737       O891   2.161       .  S
Cd737       O750   1.998       .  S
Cd737       O889   1.916       .  S
O738        C748   1.263       .  A
O738      Cd1186   1.999       .  S
O739      Cd1186   1.907       .  S
O739      Cd1040   1.920       .  S
Cd740       O885   2.003       .  S
Cd740       O742   2.161       .  S
O741        C748   1.301       .  A
C743        O747   1.259       .  A
O747       Zn884   1.998       .  S
C749        O750   1.263       .  A
C751        N834   1.469       .  S
C751       N1202   1.368       .  A
N752        C753   1.361       .  A
C753        N790   1.470       .  S
C755        N769   1.469       .  S
C755       N1204   1.361       .  A
C755        N756   1.370   1_565  A
C757        N776   1.462       .  S
C757        N758   1.365       .  A
C757        N762   1.362       .  A
N758        C759   1.362       .  A
C759        N841   1.461       .  S
C759        N760   1.361       .  A
N760        C761   1.358       .  A
C761        N848   1.461       .  S
C761        N762   1.361       .  A
C763        N783   1.475       .  S
C763        N764   1.359       .  A
C763        N768   1.371       .  A
N764        C765   1.367       .  A
C765        N797   1.474       .  S
C765        N766   1.364       .  A
N766        C767   1.373       .  A
C767        N804   1.476       .  S
C767        N768   1.364       .  A
N769        C773   1.378       .  A
N769        C770   1.378   1_556  A
C770        C771   1.362       .  A
C770        C831   1.466       .  S
C771        C772   1.351   1_554  A
C771        H774   1.072       .  S
C772        C773   1.362       .  A
C772        H775   1.076       .  S
C773        C856   1.472       .  S
N776        C780   1.376       .  A
N776        C777   1.371       .  A
C777        C778   1.361       .  A
C777        C873   1.465       .  S
C778        C779   1.360       .  A
C778        H781   1.071       .  S
C779        C780   1.364       .  A
C779        H782   1.079       .  S
C780        C899   1.469       .  S
N783        C787   1.388       .  A
N783        C784   1.391       .  A
C784        C785   1.357       .  A
C784        C827   1.487       .  S
C785        C786   1.337       .  A
C785        H788   1.069       .  S
C786        C787   1.359       .  A
C786        H789   1.079       .  S
C787        C893   1.476       .  S
N790        C794   1.380       .  A
C791        C792   1.361       .  A
C791        C829   1.467       .  S
C792        H795   1.070       .  S
C793        C794   1.363       .  A
C793        H796   1.077       .  S
C794        C870   1.474       .  S
N797       C1251   1.390       .  A
N797       C1248   1.388       .  A
C798        C799   1.363       .  A
C798        C894   1.476       .  S
C799        C800   1.333       .  A
C799        H802   1.081       .  S
C800        C801   1.353       .  A
C800        H803   1.059       .  S
C801        C826   1.487       .  S
C805        C806   1.360       .  A
C805        C879   1.474       .  S
C806        C807   1.336       .  A
C806        H809   1.079       .  S
C807        C808   1.355       .  A
C807        H810   1.066       .  S
C808        C812   1.483       .  S
O811        C827   1.252       .  A
O811       Zn817   2.031       .  S
C812        O828   1.252       .  A
C812        O825   1.295       .  A
O813        C826   1.295       .  A
O813       Cd820   2.186       .  S
O814        C832   1.305       .  A
O814       Cd823   2.184       .  S
O815        C829   1.305   1_545  A
O815       Cd819   2.181   1_545  S
O816        C827   1.295       .  A
O816       Cd819   2.169       .  S
Zn817       O828   2.025       .  S
Zn817       O830   2.031       .  S
Zn817       O822   1.785       .  S
O818        C829   1.265       .  A
O818       Cd823   2.023       .  S
Cd819       O821   2.013       .  S
Cd819       O822   1.953       .  S
Cd820       O824   2.180       .  S
Cd820       O833   2.019       .  S
Cd820       O822   1.962       .  S
O821        C831   1.265       .  A
O822       Cd823   1.952       .  S
Cd823       O825   2.176       .  S
O824        C831   1.305       .  A
C826        O830   1.250       .  A
C832        C835   1.469       .  S
C832        O833   1.265       .  A
N834        C838   1.379       .  A
N834       C1285   1.377   1_556  A
C835        C836   1.362       .  A
C836        H839   1.072       .  S
C837       C1286   1.350   1_556  A
C837        C838   1.362       .  A
C837        H840   1.076       .  S
C838        C871   1.472       .  S
C842        C843   1.361       .  A
C842        C896   1.466       .  S
C843        C844   1.359       .  A
C843        H846   1.071       .  S
C844        C845   1.369       .  A
C844        H847   1.080       .  S
C845        C876   1.466       .  S
C849       N1298   1.373       .  A
C849        C850   1.365       .  A
C849        C898   1.464       .  S
C850        C851   1.360       .  A
C850        H853   1.077       .  S
C851        C852   1.364       .  A
C851        H854   1.076       .  S
C852       N1298   1.373       .  A
C852        C875   1.466       .  S
O855        C871   1.259       .  A
O855       Zn861   1.993       .  S
C856        O872   1.259       .  A
C856        O869   1.295       .  A
O857        C870   1.297       .  A
O857       Cd864   2.156       .  S
O858        C876   1.299       .  A
O858       Cd867   2.154       .  S
O859        C873   1.302       .  A
O859       Cd863   2.164       .  S
O860        C871   1.297       .  A
O860       Cd863   2.149       .  S
Zn861       O872   1.996       .  S
Zn861       O874   1.995       .  S
Zn861       O866   1.802       .  S
O862        C873   1.266       .  A
O862       Cd867   2.007       .  S
Cd863       O865   2.010       .  S
Cd863       O866   1.920       .  S
Cd864       O868   2.155       .  S
Cd864       O877   2.004       .  S
Cd864       O866   1.912       .  S
O865        C875   1.265       .  A
O866       Cd867   1.923       .  S
Cd867       O869   2.145       .  S
O868        C875   1.299       .  A
C870        O874   1.258       .  A
C876        O877   1.268       .  A
O878        C894   1.259       .  A
C879        O895   1.259   1_565  A
C879        O892   1.298       .  A
O880        C893   1.299       .  A
O880       Cd887   2.165       .  S
O881        C899   1.301       .  A
O881      Cd1340   2.162       .  S
O882        C896   1.302       .  A
O882       Cd886   2.164       .  S
O883        C894   1.299       .  A
O883       Cd886   2.153       .  S
Zn884      O1328   2.003       .  S
Zn884      O1195   2.000       .  S
Zn884       O889   1.817       .  S
O885        C896   1.264       .  A
Cd887       O900   1.999       .  S
O888        C898   1.265       .  A
O888      Cd1336   1.994       .  S
O889      Cd1336   1.911       .  S
O889      Cd1190   1.910       .  S
Cd890       O892   2.152       .  S
O891        C898   1.301       .  A
C893        O897   1.258       .  A
C899        O900   1.264       .  A
C901        N984   1.469       .  S
C901       N1206   1.361   1_455  A
N902        C903   1.361   1_545  A
C903        N940   1.470       .  S
C903       N1204   1.370       .  A
N904       C1053   1.369       .  A
C905        N919   1.470       .  S
C905        N906   1.370       .  A
N906       C1051   1.361   1_655  A
C907        N926   1.463       .  S
C907        N908   1.363       .  A
C907        N912   1.358       .  A
N908        C909   1.367       .  A
C909        N991   1.463       .  S
C909        N910   1.366       .  A
N910        C911   1.367       .  A
C911        N998   1.467       .  S
C911        N912   1.361       .  A
C913        N933   1.473       .  S
C913        N914   1.361       .  A
C913        N918   1.368       .  A
N914        C915   1.369       .  A
C915        N947   1.473       .  S
C915        N916   1.360       .  A
N916        C917   1.369       .  A
C917        N954   1.472       .  S
C917        N918   1.360       .  A
N919        C923   1.380       .  A
N919        C920   1.379   1_556  A
C920        C921   1.361       .  A
C920        C981   1.468       .  S
C921        C922   1.352   1_554  A
C921        H924   1.071       .  S
C922        C923   1.362       .  A
C922        H925   1.076       .  S
C923       C1006   1.474       .  S
N926        C930   1.372       .  A
N926        C927   1.375       .  A
C927        C928   1.369       .  A
C927       C1023   1.468       .  S
C928        C929   1.360       .  A
C928        H931   1.080   1_655  S
C929        C930   1.360       .  A
C929        H932   1.071       .  S
C930       C1049   1.465       .  S
N933        C937   1.386       .  A
N933        C934   1.387       .  A
C934        C935   1.357       .  A
C934        C977   1.480       .  S
C935        C936   1.334       .  A
C935        H938   1.067       .  S
C936        C937   1.362       .  A
C936        H939   1.080       .  S
C937       C1043   1.470       .  S
N940        C944   1.378       .  A
N940       C1241   1.378   1_556  A
C941       N1090   1.378   1_554  A
C941        C942   1.360       .  A
C941        C979   1.467       .  S
C942       C1093   1.352   1_554  A
C942        H945   1.070       .  S
C943       C1242   1.350   1_556  A
C943        C944   1.362       .  A
C943        H946   1.076       .  S
C944       C1020   1.472   1_565  S
C948        C949   1.361       .  A
C948       C1044   1.475       .  S
C949        C950   1.335       .  A
C949        H952   1.079       .  S
C950        C951   1.355       .  A
C950        H953   1.066       .  S
C951        C976   1.485       .  S
N954       C1258   1.388   1_545  A
N954       C1255   1.387   1_545  A
C955       N1104   1.387       .  A
C955        C956   1.362       .  A
C955       C1029   1.473       .  S
C956        C957   1.335       .  A
C956        H959   1.080       .  S
C957        C958   1.356       .  A
C957        H960   1.065       .  S
C958       N1104   1.388       .  A
C958        C962   1.483       .  S
O961        C977   1.252       .  A
O961       Zn967   2.024       .  S
C962        O978   1.251       .  A
C962        O975   1.295       .  A
O963        C976   1.295       .  A
O963       Cd970   2.175       .  S
O964        C982   1.305       .  A
O964       Cd973   2.182       .  S
O965        C979   1.305       .  A
O965       Cd969   2.178       .  S
O966        C977   1.294       .  A
O966       Cd969   2.171       .  S
Zn967       O978   2.027       .  S
Zn967       O980   2.028       .  S
Zn967       O972   1.784       .  S
O968        C979   1.265       .  A
O968       Cd973   2.018       .  S
Cd969       O971   2.015       .  S
Cd969       O972   1.955       .  S
Cd970       O974   2.182       .  S
Cd970       O983   2.014       .  S
Cd970       O972   1.956       .  S
O971        C981   1.265       .  A
O972       Cd973   1.953       .  S
Cd973       O975   2.177       .  S
O974        C981   1.305       .  A
C976        O980   1.251       .  A
C982        C985   1.466       .  S
C982        O983   1.264       .  A
N984        C988   1.379       .  A
C985        C986   1.361       .  A
C986        H989   1.070       .  S
C987        C988   1.361       .  A
C987        H990   1.075       .  S
C988       C1021   1.473   1_455  S
N991       C1145   1.377       .  A
N991       C1142   1.372       .  A
C992       N1291   1.374   1_545  A
C992        C993   1.365       .  A
C992       C1046   1.466       .  S
C993        C994   1.361       .  A
C993        H996   1.078       .  S
C994        C995   1.363       .  A
C994        H997   1.076       .  S
C995       N1291   1.374   1_545  A
C995       C1026   1.467       .  S
C999       C1000   1.364       .  A
C999       C1048   1.469       .  S
C1000      C1001   1.359       .  A
C1000      H1003   1.079       .  S
C1001      C1002   1.360       .  A
C1001      H1004   1.070       .  S
C1002      C1025   1.465       .  S
O1005      C1021   1.258       .  A
O1005     Zn1011   1.995       .  S
C1006      O1022   1.258       .  A
C1006      O1019   1.297       .  A
O1007      C1020   1.296   1_565  A
O1007     Cd1014   2.147   1_565  S
O1008      C1026   1.300       .  A
O1008     Cd1017   2.158       .  S
O1009      C1023   1.299       .  A
O1009     Cd1013   2.154       .  S
O1010      C1021   1.296   1_455  A
O1010     Cd1013   2.149   1_455  S
Zn1011     O1022   1.995       .  S
Zn1011     O1024   1.994       .  S
Zn1011     O1016   1.802       .  S
O1012      C1023   1.268       .  A
O1012     Cd1017   2.009       .  S
Cd1013     O1015   2.004   1_655  S
Cd1013     O1016   1.925       .  S
Cd1014     O1018   2.164       .  S
Cd1014     O1027   2.010   1_545  S
Cd1014     O1016   1.921       .  S
O1015      C1025   1.265   1_455  A
O1016     Cd1017   1.912       .  S
Cd1017     O1019   2.159       .  S
O1018      C1025   1.302       .  A
C1020      O1024   1.260       .  A
C1026      O1027   1.264   1_545  A
O1028      C1044   1.259       .  A
C1029      O1045   1.260       .  A
C1029      O1042   1.296       .  A
O1030      C1043   1.297       .  A
O1030     Cd1037   2.141       .  S
O1031      C1049   1.303       .  A
O1032      C1046   1.302       .  A
O1032     Cd1036   2.161       .  S
O1033      C1044   1.297       .  A
O1033     Cd1036   2.149       .  S
Zn1034     O1347   2.001   1_545  S
Zn1034     O1039   1.812       .  S
O1035      C1046   1.266   1_565  A
O1035     Cd1340   1.996       .  S
Cd1037     O1191   2.158       .  S
Cd1037     O1050   1.995       .  S
Cd1037     O1189   1.919       .  S
O1038      C1048   1.264   1_455  A
O1039     Cd1337   1.912   1_545  S
Cd1040     O1185   1.993       .  S
Cd1040     O1042   2.142       .  S
O1041      C1048   1.301       .  A
O1041     Cd1337   2.161   1_545  S
C1043      O1047   1.260       .  A
O1047     Zn1184   2.001       .  S
C1049      O1050   1.263       .  A
C1051      N1134   1.469       .  S
N1052      C1053   1.360       .  A
C1053      N1090   1.468       .  S
N1054      C1203   1.369       .  A
C1055      N1069   1.470   1_556  S
C1055      N1056   1.370       .  A
N1056      C1201   1.363   1_655  A
C1057      N1076   1.461       .  S
C1057      N1058   1.362       .  A
C1057      N1062   1.359       .  A
N1058      C1059   1.361       .  A
C1059      N1141   1.460       .  S
C1059      N1060   1.365       .  A
N1060      C1061   1.361       .  A
C1061      N1148   1.463       .  S
C1061      N1062   1.362       .  A
C1063      N1083   1.475       .  S
C1063      N1064   1.362       .  A
C1063      N1068   1.370       .  A
N1064      C1065   1.370       .  A
C1065      N1097   1.473       .  S
C1065      N1066   1.362       .  A
N1066      C1067   1.370       .  A
C1067      N1104   1.473       .  S
C1067      N1068   1.362       .  A
N1069      C1073   1.379   1_554  A
N1069      C1070   1.380       .  A
C1070      C1071   1.363       .  A
C1070      C1131   1.467       .  S
C1071      C1072   1.350   1_554  A
C1071      H1074   1.072       .  S
C1072      C1073   1.361       .  A
C1072      H1075   1.075       .  S
C1073      C1156   1.475       .  S
N1076      C1080   1.375       .  A
N1076      C1077   1.372       .  A
C1077      C1078   1.363       .  A
C1077      C1173   1.468       .  S
C1078      C1079   1.361       .  A
C1078      H1081   1.075       .  S
C1079      C1080   1.362       .  A
C1079      H1082   1.077       .  S
C1080      C1199   1.468       .  S
N1083      C1087   1.389       .  A
N1083      C1084   1.389       .  A
C1084      C1085   1.355       .  A
C1084      C1127   1.484       .  S
C1085      C1086   1.333       .  A
C1085      H1088   1.064       .  S
C1086      C1087   1.362       .  A
C1086      H1089   1.080       .  S
C1087      C1193   1.475       .  S
N1090      C1094   1.380       .  A
C1091      N1240   1.376   1_554  A
C1091      C1092   1.361       .  A
C1091      C1129   1.467       .  S
C1092      C1243   1.352   1_554  A
C1092      H1095   1.069       .  S
C1093      C1094   1.361       .  A
C1093      H1096   1.076       .  S
C1094      C1170   1.474       .  S
C1098      C1099   1.362       .  A
C1098      C1194   1.475       .  S
C1099      C1100   1.334       .  A
C1099      H1102   1.080       .  S
C1100      C1101   1.357       .  A
C1100      H1103   1.066       .  S
C1101      C1126   1.485       .  S
C1105      N1254   1.388       .  A
C1105      C1106   1.360       .  A
C1105      C1179   1.474       .  S
C1106      C1107   1.334       .  A
C1106      H1109   1.080       .  S
C1107      C1108   1.356       .  A
C1107      H1110   1.066       .  S
C1108      N1254   1.390       .  A
C1108      C1112   1.485       .  S
O1111      C1127   1.251       .  A
O1111     Zn1117   2.030       .  S
C1112      O1128   1.251       .  A
C1112      O1125   1.295       .  A
O1113      C1126   1.294       .  A
O1113     Cd1120   2.174       .  S
O1114      C1132   1.305       .  A
O1114     Cd1123   2.184       .  S
O1115      C1129   1.304       .  A
O1115     Cd1119   2.177       .  S
O1116      C1127   1.295       .  A
O1116     Cd1119   2.175       .  S
Zn1117     O1128   2.030       .  S
Zn1117     O1130   2.028       .  S
Zn1117     O1122   1.783       .  S
O1118      C1129   1.265       .  A
O1118     Cd1123   2.019       .  S
Cd1119     O1121   2.016       .  S
Cd1119     O1122   1.959       .  S
Cd1120     O1124   2.182       .  S
Cd1120     O1133   2.018       .  S
Cd1120     O1122   1.955       .  S
O1121      C1131   1.265       .  A
O1122     Cd1123   1.958       .  S
Cd1123     O1125   2.178       .  S
O1124      C1131   1.305       .  A
C1126      O1130   1.252       .  A
C1132      C1135   1.466       .  S
C1132      O1133   1.265       .  A
N1134      C1138   1.380       .  A
C1135      C1136   1.361       .  A
C1136      H1139   1.071       .  S
C1137      C1138   1.363       .  A
C1137      H1140   1.077       .  S
C1138      C1171   1.474   1_455  S
N1141      C1295   1.370       .  A
N1141      C1292   1.376       .  A
C1142      C1143   1.359       .  A
C1142      C1196   1.465       .  S
C1143      C1144   1.360       .  A
C1143      H1146   1.070       .  S
C1144      C1145   1.368       .  A
C1144      H1147   1.080       .  S
C1145      C1176   1.470       .  S
C1149      C1150   1.370       .  A
C1149      C1198   1.465       .  S
C1150      C1151   1.355       .  A
C1150      H1153   1.081       .  S
C1151      C1152   1.361       .  A
C1151      H1154   1.066       .  S
C1152      C1175   1.467       .  S
O1155      C1171   1.259       .  A
O1155     Zn1161   1.999       .  S
C1156      O1172   1.259       .  A
C1156      O1169   1.296       .  A
O1157      C1170   1.297       .  A
O1157     Cd1164   2.157       .  S
O1158      C1176   1.300       .  A
O1158     Cd1167   2.156       .  S
O1159      C1173   1.301       .  A
O1159     Cd1163   2.159       .  S
O1160      C1171   1.296   1_455  A
O1160     Cd1163   2.150   1_455  S
Zn1161     O1172   2.001       .  S
Zn1161     O1174   1.996       .  S
Zn1161     O1166   1.807       .  S
O1162      C1173   1.267       .  A
O1162     Cd1167   2.009       .  S
Cd1163     O1165   2.008   1_655  S
Cd1163     O1166   1.930       .  S
Cd1164     O1168   2.170       .  S
Cd1164     O1177   2.009       .  S
Cd1164     O1166   1.914       .  S
O1165      C1175   1.263   1_455  A
O1166     Cd1167   1.925       .  S
Cd1167     O1169   2.156       .  S
O1168      C1175   1.303       .  A
C1170      O1174   1.259       .  A
C1176      O1177   1.265       .  A
O1178      C1194   1.260       .  A
C1179      O1195   1.260       .  A
C1179      O1192   1.299       .  A
O1180      C1193   1.299       .  A
O1180     Cd1187   2.152       .  S
O1181      C1199   1.301       .  A
O1182      C1196   1.304       .  A
O1182     Cd1186   2.171       .  S
O1183      C1194   1.299       .  A
O1183     Cd1186   2.157       .  S
Zn1184     O1189   1.811       .  S
O1185      C1196   1.263       .  A
Cd1187     O1341   2.172       .  S
Cd1187     O1200   1.999       .  S
Cd1187     O1339   1.908   1_655  S
O1188      C1198   1.266   1_455  A
Cd1190     O1335   2.000       .  S
Cd1190     O1192   2.151       .  S
O1191      C1198   1.301       .  A
C1193      O1197   1.259       .  A
O1197     Zn1334   2.000   1_655  S
C1199      O1200   1.263       .  A
C1201      N1284   1.471       .  S
N1202      C1203   1.360       .  A
C1203      N1240   1.467       .  S
C1205      N1219   1.468       .  S
C1205      N1206   1.370   1_565  A
C1207      N1226   1.463       .  S
C1207      N1208   1.359       .  A
C1207      N1212   1.363       .  A
N1208      C1209   1.365       .  A
C1209      N1291   1.464       .  S
C1209      N1210   1.360       .  A
N1210      C1211   1.363       .  A
C1211      N1298   1.463       .  S
C1211      N1212   1.358       .  A
C1213      N1233   1.474       .  S
C1213      N1214   1.361       .  A
C1213      N1218   1.369       .  A
N1214      C1215   1.370       .  A
C1215      N1247   1.476       .  S
C1215      N1216   1.363       .  A
N1216      C1217   1.372       .  A
C1217      N1254   1.476       .  S
C1217      N1218   1.361       .  A
N1219      C1223   1.378       .  A
N1219      C1220   1.378   1_556  A
C1220      C1221   1.362       .  A
C1220      C1281   1.468       .  S
C1221      C1222   1.351   1_554  A
C1221      H1224   1.072       .  S
C1222      C1223   1.361       .  A
C1222      H1225   1.076       .  S
C1223      C1306   1.472       .  S
N1226      C1230   1.373       .  A
N1226      C1227   1.373       .  A
C1227      C1228   1.361       .  A
C1227      C1323   1.466       .  S
C1228      C1229   1.362       .  A
C1228      H1231   1.074       .  S
C1229      C1230   1.366       .  A
C1229      H1232   1.079       .  S
C1230      C1349   1.465       .  S
N1233      C1237   1.389       .  A
N1233      C1234   1.389       .  A
C1234      C1235   1.354       .  A
C1234      C1277   1.485       .  S
C1235      C1236   1.336       .  A
C1235      H1238   1.064       .  S
C1236      C1237   1.361       .  A
C1236      H1239   1.080       .  S
C1237      C1343   1.475       .  S
N1240      C1244   1.378       .  A
C1241      C1242   1.361       .  A
C1241      C1279   1.466       .  S
C1242      H1245   1.071       .  S
C1243      C1244   1.364       .  A
C1243      H1246   1.077       .  S
C1244      C1320   1.474       .  S
C1248      C1249   1.361       .  A
C1248      C1344   1.475       .  S
C1249      C1250   1.334       .  A
C1249      H1252   1.080       .  S
C1250      C1251   1.356       .  A
C1250      H1253   1.065       .  S
C1251      C1276   1.486       .  S
C1255      C1256   1.361       .  A
C1255      C1329   1.474       .  S
C1256      C1257   1.336       .  A
C1256      H1259   1.080       .  S
C1257      C1258   1.356       .  A
C1257      H1260   1.066       .  S
C1258      C1262   1.484       .  S
O1261      C1277   1.251       .  A
O1261     Zn1267   2.028       .  S
C1262      O1278   1.252       .  A
C1262      O1275   1.294       .  A
O1263      C1276   1.295       .  A
O1263     Cd1270   2.178       .  S
O1264      C1282   1.305       .  A
O1264     Cd1273   2.180       .  S
O1265      C1279   1.305   1_545  A
O1265     Cd1269   2.181   1_545  S
O1266      C1277   1.295       .  A
O1266     Cd1269   2.178       .  S
Zn1267     O1278   2.027       .  S
Zn1267     O1280   2.031       .  S
Zn1267     O1272   1.784       .  S
O1268      C1279   1.265       .  A
O1268     Cd1273   2.017       .  S
Cd1269     O1271   2.021       .  S
Cd1269     O1272   1.958       .  S
Cd1270     O1274   2.180       .  S
Cd1270     O1283   2.015       .  S
Cd1270     O1272   1.956       .  S
O1271      C1281   1.265       .  A
O1272     Cd1273   1.956       .  S
Cd1273     O1275   2.171       .  S
O1274      C1281   1.305       .  A
C1276      O1280   1.252       .  A
C1282      C1285   1.465       .  S
C1282      O1283   1.265       .  A
N1284      C1288   1.381       .  A
C1285      C1286   1.360       .  A
C1286      H1289   1.070       .  S
C1287      C1288   1.362       .  A
C1287      H1290   1.076       .  S
C1288      C1321   1.475   1_455  S
C1292      C1293   1.366       .  A
C1292      C1346   1.468       .  S
C1293      C1294   1.360       .  A
C1293      H1296   1.079       .  S
C1294      C1295   1.359       .  A
C1294      H1297   1.071       .  S
C1295      C1326   1.466       .  S
C1299      C1300   1.360       .  A
C1299      C1348   1.464       .  S
C1300      C1301   1.356       .  A
C1300      H1303   1.066       .  S
C1301      C1302   1.370       .  A
C1301      H1304   1.081       .  S
C1302      C1325   1.468       .  S
O1305      C1321   1.258       .  A
O1305     Zn1311   1.995       .  S
C1306      O1322   1.259       .  A
C1306      O1319   1.296       .  A
O1307      C1320   1.295       .  A
O1307     Cd1314   2.152       .  S
O1308      C1326   1.302       .  A
O1308     Cd1317   2.163       .  S
O1309      C1323   1.301       .  A
O1309     Cd1313   2.161       .  S
O1310      C1321   1.297   1_455  A
O1310     Cd1313   2.162   1_455  S
Zn1311     O1322   1.996       .  S
Zn1311     O1324   1.997       .  S
Zn1311     O1316   1.801       .  S
O1312      C1323   1.263       .  A
O1312     Cd1317   2.006       .  S
Cd1313     O1315   2.007       .  S
Cd1313     O1316   1.911       .  S
Cd1314     O1318   2.152       .  S
Cd1314     O1327   2.005       .  S
Cd1314     O1316   1.922       .  S
O1315      C1325   1.267       .  A
O1316     Cd1317   1.920       .  S
Cd1317     O1319   2.148       .  S
O1318      C1325   1.299       .  A
C1320      O1324   1.260       .  A
C1326      O1327   1.266       .  A
O1328      C1344   1.258       .  A
C1329      O1345   1.259   1_565  A
C1329      O1342   1.298       .  A
O1330      C1343   1.298       .  A
O1330     Cd1337   2.157       .  S
O1331      C1349   1.301       .  A
O1332      C1346   1.300       .  A
O1332     Cd1336   2.158       .  S
O1333      C1344   1.298       .  A
O1333     Cd1336   2.154       .  S
Zn1334     O1339   1.816       .  S
O1335      C1346   1.264       .  A
Cd1337     O1350   1.995       .  S
O1338      C1348   1.263   1_455  A
Cd1340     O1342   2.156       .  S
O1341      C1348   1.304       .  A
C1343      O1347   1.259       .  A
C1349      O1350   1.266       .  A
