geometry optimzed in LAMMPS
_audit_creation_date              2020-12-01 
_audit_creation_method            'lammps2cif' 
_symmetry_space_group_name_H-M    'P1' 
_symmetry_Int_Tables_number       1 
_symmetry_cell_setting            triclinic 
loop_ 
_symmetry_equiv_pos_as_xyz 
  x,y,z 
_cell_length_a                    29.88095323 
_cell_length_b                    29.74573749093073 
_cell_length_c                    29.746953220395667 
_cell_angle_alpha                 89.89206620025001 
_cell_angle_beta                  90.04503432316989 
_cell_angle_gamma                 89.90897140842017 
loop_ 
_atom_site_label 
_atom_site_type_symbol 
_atom_site_fract_x 
_atom_site_fract_y 
_atom_site_fract_z 
_atom_site_charge 
C1          C  0.72329892  0.72824950  0.66800691     0.79800
N2          N  0.74382921  0.69272715  0.68795505    -0.78600
C3          C  0.72613820  0.67424385  0.72563033     0.82200
N4          N  0.68759256  0.69077952  0.74292804    -0.78500
C5          C  0.66696599  0.72615238  0.72297224     0.82300
N6          N  0.68444271  0.74457342  0.68510227    -0.80200
C7          C  0.72718936  0.45385227  0.67526794     0.79800
N8          N  0.68904725  0.43681011  0.69320734    -0.78600
C9          C  0.67003366  0.45676491  0.72947584     0.82200
N10         N  0.68858185  0.49437469  0.74714242    -0.78500
C11         C  0.72666352  0.51144126  0.72918540     0.82300
N12         N  0.74567561  0.49148560  0.69294811    -0.80200
C13         C  0.45152414  0.45017415  0.67197445     0.79800
N14         N  0.49006140  0.43511567  0.69081460    -0.78600
C15         C  0.50714430  0.45599085  0.72746966     0.82200
N16         N  0.48632363  0.49270248  0.74460508    -0.78500
C17         C  0.44773190  0.50779235  0.72576025     0.82300
N18         N  0.43058189  0.48677606  0.68918565    -0.80200
C19         C  0.44900171  0.72681069  0.66651695     0.79800
N20         N  0.48689491  0.74347021  0.68517440    -0.78600
C21         C  0.50428389  0.72402760  0.72255614     0.82200
N22         N  0.48429208  0.68742294  0.74082461    -0.78500
C23         C  0.44645058  0.67068370  0.72211039     0.82300
N24         N  0.42913605  0.69000805  0.68458891    -0.80200
C25         C  0.45017374  0.72267846  0.50381046     0.79800
N26         N  0.43336800  0.68346993  0.48782941    -0.78600
C27         C  0.45278943  0.66333459  0.45185969     0.82200
N28         N  0.48972150  0.68171033  0.43276382    -0.78500
C29         C  0.50645569  0.72090012  0.44878628     0.82300
N30         N  0.48684502  0.74117361  0.48445303    -0.80200
C31         C  0.72522240  0.72575779  0.50512523     0.79800
N32         N  0.68749108  0.74279563  0.48618927    -0.78600
C33         C  0.66891812  0.72227766  0.45000080     0.82200
N34         N  0.68739216  0.68406544  0.43350645    -0.78500
C35         C  0.72502415  0.66694379  0.45250353     0.82300
N36         N  0.74370689  0.68754707  0.48854477    -0.80200
C37         C  0.72561230  0.44957930  0.51205375     0.79800
N38         N  0.69008164  0.42933391  0.49223235    -0.78600
C39         C  0.67354179  0.44579802  0.45302709     0.82200
N40         N  0.69179989  0.48308111  0.43429365    -0.78500
C41         C  0.72702873  0.50354256  0.45431091     0.82300
N42         N  0.74367841  0.48704555  0.49343482    -0.80200
C43         C  0.79275186  0.59429940  0.79314519     0.79800
N44         N  0.77638544  0.55453774  0.77776160    -0.78600
C45         C  0.74428676  0.55389945  0.74562470     0.82200
N46         N  0.72832702  0.59298093  0.72864230    -0.78500
C47         C  0.74455752  0.63271420  0.74359295     0.82300
N48         N  0.77661688  0.63347540  0.77586873    -0.80200
C49         C  0.37541419  0.59008847  0.78388599     0.79800
N50         N  0.39280189  0.62934975  0.76821242    -0.78600
C51         C  0.42763346  0.62887559  0.73904450     0.82200
N52         N  0.44545563  0.58925238  0.72563602    -0.78500
C53         C  0.42820683  0.55002008  0.74083902     0.82300
N54         N  0.39321179  0.55037367  0.76984086    -0.80200
C55         C  0.79095921  0.58541033  0.38685189     0.79800
N56         N  0.77502657  0.62481944  0.40348490    -0.78600
C57         C  0.74342720  0.62471492  0.43611035     0.82200
N58         N  0.72793796  0.58520506  0.45260741    -0.78500
C59         C  0.74386664  0.54578027  0.43629981     0.82300
N60         N  0.77505098  0.54583921  0.40320470    -0.80200
C61         C  0.38667704  0.58035367  0.38805531     0.79800
N62         N  0.40247792  0.62005470  0.40415297    -0.78600
C63         C  0.43559062  0.62066230  0.43527561     0.82200
N64         N  0.45312968  0.58151191  0.45056800    -0.78500
C65         C  0.43751961  0.54180937  0.43474521     0.82300
N66         N  0.40438695  0.54117991  0.40359419    -0.80200
O67         O  0.13397803  0.62476143  0.04688657    -0.72200
O68         O  0.04535258  0.62368249  0.13803901    -0.72500
O69         O  0.13477027  0.62139913  0.13707895    -0.72300
O70         O  0.04440631  0.62698631  0.04777166    -0.72300
O71         O  0.04369767  0.55405954  0.04485824    -0.72300
O72         O  0.13265954  0.54846058  0.13545929    -0.72300
O73         O  0.04269105  0.55078174  0.13461560    -0.72300
O74         O  0.13297256  0.55180109  0.04507228    -0.72400
V75         V  0.08963632  0.62279305  0.09243100     1.35200
V76         V  0.08809498  0.55269001  0.09011046     1.35200
C77         C  0.14822885  0.58848248  0.03002926     0.77000
C78         C  0.02860443  0.58708400  0.15154149     0.77000
C79         C  0.14889719  0.58408364  0.15179728     0.76900
C80         C  0.02885305  0.59133653  0.03083435     0.76900
C81         C  0.58463396  0.78328396  0.79524531     0.79800
N82         N  0.54564308  0.76825395  0.77725075    -0.78600
C83         C  0.54611210  0.74048103  0.74122586     0.82200
N84         N  0.58558120  0.72753643  0.72289092    -0.78500
C85         C  0.62459358  0.74219574  0.74085421     0.82300
N86         N  0.62411251  0.76977018  0.77704313    -0.80200
C87         C  0.58805688  0.39210316  0.79606533     0.79800
N88         N  0.62747924  0.40801431  0.77971083    -0.78600
C89         C  0.62774609  0.43998553  0.74715680     0.82200
N90         N  0.58857135  0.45602390  0.73054556    -0.78500
C91         C  0.54917158  0.44032365  0.74673379     0.82300
N92         N  0.54894274  0.40841042  0.77929291    -0.80200
C93         C  0.58742845  0.78883964  0.38441014     0.79800
N94         N  0.54814334  0.77223077  0.40033861    -0.78600
C95         C  0.54831101  0.73857454  0.43115215     0.82200
N96         N  0.58765176  0.72209388  0.44682674    -0.78500
C97         C  0.62688480  0.73896396  0.43152996     0.82300
N98         N  0.62680924  0.77210849  0.40017781    -0.80200
C99         C  0.59348103  0.38782092  0.37859525     0.79800
N100        N  0.63262009  0.40158272  0.39746404    -0.78600
C101        C  0.63217725  0.42793103  0.43461124     0.82200
N102        N  0.59275342  0.44093703  0.45281183    -0.78500
C103        C  0.55371232  0.42774945  0.43398908     0.82300
N104        N  0.55401761  0.40149955  0.39681044    -0.80200
O105        O  0.62104581  0.12992631  0.03951982    -0.72200
O106        O  0.62188301  0.04160409  0.13147594    -0.72500
O107        O  0.62000360  0.03989857  0.04190388    -0.72300
O108        O  0.62303035  0.13200926  0.12929475    -0.72300
O109        O  0.55041258  0.13494967  0.12897467    -0.72300
O110        O  0.54740522  0.03917878  0.04486970    -0.72300
O111        O  0.54931901  0.04478628  0.13504070    -0.72300
O112        O  0.54837503  0.12953073  0.03945136    -0.72400
V113        V  0.62005695  0.08589402  0.08560862     1.35200
V114        V  0.55024044  0.08700485  0.08705073     1.35200
C115        C  0.58461129  0.14494981  0.02389348     0.77000
C116        C  0.58576838  0.02819539  0.14899500     0.77000
C117        C  0.58333502  0.02335843  0.02887022     0.76900
C118        C  0.58731806  0.14994928  0.14330307     0.76900
C119        C  0.45572386  0.50000480  0.45230783     0.79800
N120        N  0.43848616  0.48210563  0.49041366    -0.78600
C121        C  0.45769706  0.44532351  0.50923220     0.82200
N122        N  0.49479689  0.42691999  0.49050023    -0.78500
C123        C  0.51180836  0.44465683  0.45209814     0.82300
N124        N  0.49254861  0.48146926  0.43327052    -0.80200
C125        C  0.79277343  0.79060035  0.58656743     0.79800
N126        N  0.77630127  0.77457478  0.54701320    -0.78600
C127        C  0.74210970  0.74455760  0.54702781     0.82200
N128        N  0.72450040  0.73022496  0.58645136    -0.78500
C129        C  0.74081815  0.74584636  0.62588217     0.82300
N130        N  0.77496627  0.77576659  0.62595475    -0.80200
C131        C  0.39205723  0.79848089  0.58266387     0.79800
N132        N  0.40619242  0.78162381  0.62278226    -0.78600
C133        C  0.43309380  0.74485872  0.62393672     0.82200
N134        N  0.44631211  0.72516110  0.58515322    -0.78500
C135        C  0.43272696  0.74204903  0.54512203     0.82300
N136        N  0.40572190  0.77867476  0.54383511    -0.80200
C137        C  0.79189779  0.38532614  0.59468912     0.79800
N138        N  0.77701242  0.40322237  0.63400522    -0.78600
C139        C  0.74471484  0.43539873  0.63348459     0.82200
N140        N  0.72786447  0.45021616  0.59380143    -0.78500
C141        C  0.74285854  0.43266372  0.55462491     0.82300
N142        N  0.77454695  0.40006709  0.55508417    -0.80200
C143        C  0.38737021  0.38332792  0.58972282     0.79800
N144        N  0.40225950  0.40044645  0.62939603    -0.78600
C145        C  0.43601938  0.43086719  0.62986008     0.82200
N146        N  0.45475307  0.44461906  0.59075017    -0.78500
C147        C  0.44000550  0.42778422  0.55119007     0.82300
N148        N  0.40630281  0.39742281  0.55065868    -0.80200
O149        O  0.03954858  0.13042853  0.55230766    -0.72200
O150        O  0.13596322  0.04737818  0.54897940    -0.72500
O151        O  0.04668955  0.04051642  0.55167223    -0.72300
O152        O  0.12921627  0.13723974  0.54958274    -0.72300
O153        O  0.13185701  0.13620709  0.62253496    -0.72300
O154        O  0.04816898  0.04054943  0.62464538    -0.72300
O155        O  0.13814175  0.04663038  0.62198319    -0.72300
O156        O  0.04288623  0.13101758  0.62529957    -0.72400
V157        V  0.08786678  0.08888992  0.55205469     1.35200
V158        V  0.09011759  0.08848889  0.62219825     1.35200
C159        C  0.02543323  0.14552198  0.58938062     0.77000
C160        C  0.15365883  0.03307200  0.58487822     0.77000
C161        C  0.03319732  0.02408524  0.58844942     0.76900
C162        C  0.14486386  0.15300670  0.58576938     0.76900
C163        C  0.25423087  0.24793737  0.50536698    -0.18300
C164        C  0.28870182  0.27966019  0.50612768    -0.20500
C165        C  0.30207222  0.29933878  0.54681032     0.20200
C166        C  0.28034456  0.28721857  0.58710967    -0.03400
C167        C  0.24561867  0.25523151  0.58637169    -0.06400
C168        C  0.23263090  0.23537384  0.54532388     0.20500
C169        C  0.22427898  0.24276721  0.62678981     0.18600
C170        C  0.23733788  0.26273053  0.66739560    -0.17900
C171        C  0.27170714  0.29449381  0.66812798    -0.20100
C172        C  0.29353818  0.30675462  0.62822359     0.20100
C173        C  0.32845922  0.33807350  0.62883213    -0.33200
C174        C  0.35043995  0.35025551  0.58884265     0.00800
C175        C  0.33690562  0.33075407  0.54793895    -0.24500
C176        C  0.19878669  0.20278868  0.54507758    -0.29100
C177        C  0.17816492  0.18951872  0.58543483     0.06500
C178        C  0.19073490  0.21005114  0.62602834    -0.27700
H179        H  0.24467421  0.23301499  0.47361462     0.11200
H180        H  0.30506357  0.28866629  0.47485874     0.12300
H181        H  0.22116249  0.25353189  0.69870512     0.11400
H182        H  0.28138614  0.30927075  0.69990611     0.10700
H183        H  0.33844416  0.35290720  0.66051295     0.16000
H184        H  0.35357359  0.33981134  0.51685344     0.12000
H185        H  0.18925772  0.18705719  0.51367403     0.14800
H186        H  0.17476864  0.20017104  0.65724763     0.14600
C187        C  0.85411170  0.24639982  0.53002445    -0.18300
C188        C  0.88674844  0.21268646  0.52918497    -0.20500
C189        C  0.92229447  0.21327849  0.56002228     0.20200
C190        C  0.92482257  0.24799386  0.59225891    -0.03400
C191        C  0.89193267  0.28204012  0.59303781    -0.06400
C192        C  0.85651646  0.28124423  0.56164742     0.20500
C193        C  0.89448691  0.31682561  0.62519437     0.18600
C194        C  0.93021489  0.31757005  0.65583538    -0.17900
C195        C  0.96280221  0.28377026  0.65508710    -0.20100
C196        C  0.96021792  0.24872096  0.62368876     0.20100
C197        C  0.99243691  0.21445078  0.62304561    -0.33200
C198        C  0.99031297  0.18015335  0.59073524     0.00800
C199        C  0.95540926  0.17983876  0.55913332    -0.24500
C200        C  0.82414863  0.31531449  0.56241907    -0.29100
C201        C  0.82620318  0.34971696  0.59463535     0.06500
C202        C  0.86129308  0.35023463  0.62608311    -0.27700
H203        H  0.82697871  0.24525692  0.50582345     0.11200
H204        H  0.88423093  0.18619707  0.50440635     0.12300
H205        H  0.93286201  0.34419773  0.68046312     0.11400
H206        H  0.99001021  0.28498739  0.67919043     0.10700
H207        H  0.01977298  0.21493850  0.64706327     0.16000
H208        H  0.95381399  0.15329263  0.53427403     0.12000
H209        H  0.79692644  0.31477501  0.53827204     0.14800
H210        H  0.86313315  0.37703612  0.65065393     0.14600
C211        C  0.32136494  0.93114086  0.65345344    -0.18300
C212        C  0.28758751  0.96378512  0.65393641    -0.20500
C213        C  0.25700922  0.96700658  0.61822975     0.20200
C214        C  0.26129464  0.93791200  0.58103688    -0.03400
C215        C  0.29531248  0.90501115  0.58054314    -0.06400
C216        C  0.32508178  0.90118285  0.61722411     0.20500
C217        C  0.29889490  0.87534796  0.54375317     0.18600
C218        C  0.26897690  0.87916980  0.50760105    -0.17900
C219        C  0.23532369  0.91180150  0.50803174    -0.20100
C220        C  0.23105856  0.94108587  0.54468329     0.20100
C221        C  0.19658399  0.97296701  0.54588973    -0.33200
C222        C  0.19132068  0.00110708  0.58335886     0.00800
C223        C  0.22180254  0.99824654  0.61928553    -0.24500
C224        C  0.35736469  0.86686054  0.61742676    -0.29100
C225        C  0.36044037  0.83665431  0.58121125     0.06500
C226        C  0.33165835  0.84170800  0.54416815    -0.27700
H227        H  0.34415884  0.92889487  0.68168390     0.11200
H228        H  0.28501189  0.98614705  0.68257379     0.12300
H229        H  0.27130022  0.85656326  0.47913530     0.11400
H230        H  0.21234530  0.91382617  0.47994431     0.10700
H231        H  0.17310294  0.97508325  0.51817674     0.16000
H232        H  0.21809779  0.02035314  0.64801410     0.12000
H233        H  0.37976097  0.86337666  0.64590027     0.14800
H234        H  0.33368411  0.81841401  0.51623052     0.14600
C235        C  0.92608220  0.92690970  0.66955022    -0.18300
C236        C  0.89207807  0.89466087  0.66914180    -0.20500
C237        C  0.87846805  0.87491794  0.62854841     0.20200
C238        C  0.89957860  0.88742755  0.58804449    -0.03400
C239        C  0.93387547  0.91997964  0.58847032    -0.06400
C240        C  0.94699875  0.93998883  0.62940734     0.20500
C241        C  0.95458508  0.93290461  0.54787096     0.18600
C242        C  0.94140309  0.91272201  0.50736774    -0.17900
C243        C  0.90743969  0.88044189  0.50698022    -0.20100
C244        C  0.88611818  0.86779820  0.54704843     0.20100
C245        C  0.85139321  0.83613634  0.54678379    -0.33200
C246        C  0.82989139  0.82366870  0.58698700     0.00800
C247        C  0.84388783  0.84314346  0.62777605    -0.24500
C248        C  0.98024773  0.97322368  0.62935577    -0.29100
C249        C  0.00024585  0.98705514  0.58885853     0.06500
C250        C  0.98760450  0.96630127  0.54833083    -0.27700
H251        H  0.93577875  0.94190933  0.70129261     0.11200
H252        H  0.87623682  0.88535839  0.70052232     0.12300
H253        H  0.95708634  0.92218785  0.47596047     0.11400
H254        H  0.89761585  0.86557858  0.47521235     0.10700
H255        H  0.84110500  0.82129762  0.51515795     0.16000
H256        H  0.82766376  0.83393359  0.65900986     0.12000
H257        H  0.98985605  0.98899621  0.66075503     0.14800
H258        H  0.00306061  0.97651121  0.51700387     0.14600
C259        C  0.67252542  0.28026178  0.28046546    -0.18300
C260        C  0.67151435  0.24643174  0.24795304    -0.20500
C261        C  0.63113677  0.23494849  0.22683556     0.20200
C262        C  0.59155538  0.25841701  0.23777291    -0.03400
C263        C  0.59259741  0.29257881  0.27051772    -0.06400
C264        C  0.63318676  0.30313849  0.29232279     0.20500
C265        C  0.55284569  0.31536520  0.28219194     0.18600
C266        C  0.51270384  0.30475027  0.26014054    -0.17900
C267        C  0.51167433  0.27088081  0.22764432    -0.20100
C268        C  0.55076016  0.24711885  0.21671526     0.20100
C269        C  0.54964355  0.21178686  0.18567065    -0.33200
C270        C  0.58880228  0.18768792  0.17532899     0.00800
C271        C  0.62953186  0.19989793  0.19554828    -0.24500
C272        C  0.63352677  0.33549744  0.32645391    -0.29100
C273        C  0.59371280  0.35711725  0.33951937     0.06500
C274        C  0.55367501  0.34750486  0.31653081    -0.27700
H275        H  0.70397923  0.28808474  0.29681720     0.11200
H276        H  0.70220187  0.22882473  0.23976944     0.12300
H277        H  0.48195863  0.32214824  0.26854642     0.11400
H278        H  0.48015656  0.26282154  0.21153027     0.10700
H279        H  0.51822314  0.20289123  0.16977069     0.16000
H280        H  0.65990705  0.18163700  0.18751971     0.12000
H281        H  0.66460476  0.34270134  0.34380556     0.14800
H282        H  0.52287884  0.36431081  0.32594923     0.14600
C283        C  0.65485079  0.86088089  0.25141868    -0.18300
C284        C  0.65464158  0.89446484  0.21848496    -0.20500
C285        C  0.62094477  0.92736790  0.21805469     0.20200
C286        C  0.58687828  0.92627162  0.25088014    -0.03400
C287        C  0.58709378  0.89239109  0.28410563    -0.06400
C288        C  0.62137001  0.85967563  0.28443401     0.20500
C289        C  0.55298113  0.89120137  0.31688790     0.18600
C290        C  0.51930297  0.92413335  0.31645870    -0.17900
C291        C  0.51907856  0.95772523  0.28349519    -0.20100
C292        C  0.55253580  0.95893213  0.25044145     0.20100
C293        C  0.55221567  0.99211341  0.21688832    -0.33200
C294        C  0.58625301  0.99351620  0.18437619     0.00800
C295        C  0.62063201  0.96125519  0.18529053    -0.24500
C296        C  0.62149803  0.82626975  0.31769239    -0.29100
C297        C  0.58737070  0.82463343  0.35010236     0.06500
C298        C  0.55312516  0.85705922  0.34944186    -0.27700
H299        H  0.68124014  0.83585453  0.25108984     0.11200
H300        H  0.68086761  0.89472529  0.19335346     0.12300
H301        H  0.49303171  0.92382165  0.34154382     0.11400
H302        H  0.49263710  0.98269302  0.28376754     0.10700
H303        H  0.52579806  0.01714264  0.21631836     0.16000
H304        H  0.64669861  0.96207549  0.15996172     0.12000
H305        H  0.64774063  0.80104740  0.31792139     0.14800
H306        H  0.52692856  0.85601967  0.37462498     0.14600
C307        C  0.50650879  0.29761929  0.90557096    -0.18300
C308        C  0.50582852  0.26244738  0.93682210    -0.20500
C309        C  0.54519397  0.23878027  0.94712540     0.20200
C310        C  0.58570181  0.25081252  0.92593251    -0.03400
C311        C  0.58638856  0.28628575  0.89444495    -0.06400
C312        C  0.54656657  0.30967176  0.88412427     0.20500
C313        C  0.62689547  0.29822988  0.87323096     0.18600
C314        C  0.66630002  0.27472756  0.88367892    -0.17900
C315        C  0.66564363  0.23961576  0.91493680    -0.20100
C316        C  0.62555912  0.22745077  0.93621166     0.20100
C317        C  0.62473777  0.19250116  0.96777788    -0.33200
C318        C  0.58456861  0.18040830  0.98914183     0.00800
C319        C  0.54485132  0.20350678  0.97844199    -0.24500
C320        C  0.54744077  0.34449139  0.85234096    -0.29100
C321        C  0.58764459  0.35636504  0.83074350     0.06500
C322        C  0.62728495  0.33323887  0.84170103    -0.27700
H323        H  0.47566581  0.31532504  0.89808099     0.11200
H324        H  0.47448975  0.25373088  0.95291696     0.12300
H325        H  0.69765429  0.28347581  0.86762774     0.11400
H326        H  0.69650057  0.22197906  0.92248751     0.10700
H327        H  0.65547015  0.17482348  0.97584119     0.16000
H328        H  0.51381070  0.19454916  0.99502304     0.12000
H329        H  0.51671772  0.36223098  0.84438016     0.14800
H330        H  0.65843394  0.34197291  0.82522761     0.14600
C331        C  0.50182435  0.91844422  0.92968832    -0.18300
C332        C  0.50206948  0.88426765  0.89749012    -0.20500
C333        C  0.54267445  0.86604264  0.88232929     0.20200
C334        C  0.58342824  0.88196993  0.90011995    -0.03400
C335        C  0.58319271  0.91644744  0.93252345    -0.06400
C336        C  0.54219119  0.93491365  0.94721637     0.20500
C337        C  0.62400751  0.93275530  0.94981537     0.18600
C338        C  0.66459030  0.91418226  0.93507616    -0.17900
C339        C  0.66481890  0.88000149  0.90295584    -0.20100
C340        C  0.62446294  0.86392985  0.88507983     0.20100
C341        C  0.62451709  0.83076223  0.85179306    -0.33200
C342        C  0.58409266  0.81551069  0.83301714     0.00800
C343        C  0.54326133  0.83281307  0.84906102    -0.24500
C344        C  0.54231660  0.96972918  0.97891154    -0.29100
C345        C  0.58293308  0.98638651  0.99591073     0.06500
C346        C  0.62359078  0.96757733  0.98131539    -0.27700
H347        H  0.47007963  0.93220831  0.94065395     0.11200
H348        H  0.47048821  0.87235111  0.88415526     0.12300
H349        H  0.69618842  0.92631850  0.94816806     0.11400
H350        H  0.69658064  0.86642704  0.89178285     0.10700
H351        H  0.65618644  0.81752550  0.83993385     0.16000
H352        H  0.51186388  0.82124536  0.83498334     0.12000
H353        H  0.51085645  0.98404311  0.99006697     0.14800
H354        H  0.65506166  0.98009420  0.99440466     0.14600
C355        C  0.28858507  0.49926382  0.28112775    -0.18300
C356        C  0.25526351  0.49972973  0.24802710    -0.20500
C357        C  0.23562419  0.54047027  0.23443605     0.20200
C358        C  0.24956468  0.58105231  0.25453918    -0.03400
C359        C  0.28308480  0.58054606  0.28789927    -0.06400
C360        C  0.30278005  0.53947383  0.30119634     0.20500
C361        C  0.29700130  0.62121799  0.30775978     0.18600
C362        C  0.27725223  0.66192156  0.29443940    -0.17900
C363        C  0.24408808  0.66240569  0.26138838    -0.20100
C364        C  0.23017805  0.62224889  0.24118810     0.20100
C365        C  0.19734775  0.62268886  0.20772470    -0.33200
C366        C  0.18337862  0.58254656  0.18731000     0.00800
C367        C  0.20247329  0.54144194  0.20097877    -0.24500
C368        C  0.33641788  0.53945845  0.33413113    -0.29100
C369        C  0.35068123  0.58001298  0.35384433     0.06500
C370        C  0.33058828  0.62068130  0.34048940    -0.27700
H371        H  0.30335686  0.46738734  0.29096202     0.11200
H372        H  0.24495881  0.46830037  0.23296965     0.12300
H373        H  0.28756833  0.69335803  0.30945717     0.11400
H374        H  0.22939887  0.69430093  0.25150233     0.10700
H375        H  0.18263620  0.65449179  0.19756665     0.16000
H376        H  0.19182069  0.51034064  0.18540628     0.12000
H377        H  0.35165483  0.50786096  0.34412726     0.14800
H378        H  0.34107330  0.65211362  0.35545511     0.14600
C379        C  0.91997032  0.65776362  0.31353645    -0.18300
C380        C  0.95333870  0.65799342  0.28064882    -0.20500
C381        C  0.95650980  0.62264307  0.24964886     0.20200
C382        C  0.92592426  0.58658941  0.25187545    -0.03400
C383        C  0.89225739  0.58638685  0.28504088    -0.06400
C384        C  0.88926833  0.62222164  0.31592650     0.20500
C385        C  0.86172310  0.55029393  0.28737478     0.18600
C386        C  0.86477529  0.51504677  0.25622888    -0.17900
C387        C  0.89818053  0.51525957  0.22333347    -0.20100
C388        C  0.92903951  0.55069262  0.22105890     0.20100
C389        C  0.96298891  0.55087789  0.18858678    -0.33200
C390        C  0.99335257  0.58681329  0.18609211     0.00800
C391        C  0.98979306  0.62269197  0.21652131    -0.24500
C392        C  0.85574239  0.62180470  0.34875571    -0.29100
C393        C  0.82558113  0.58573072  0.35160712     0.06500
C394        C  0.82876854  0.55003486  0.32088272    -0.27700
H395        H  0.91818519  0.68543890  0.33714755     0.11200
H396        H  0.97666275  0.68578885  0.27945633     0.12300
H397        H  0.84144627  0.48725388  0.25742679     0.11400
H398        H  0.89997574  0.48757731  0.19973401     0.10700
H399        H  0.96546086  0.52333650  0.16486071     0.16000
H400        H  0.01331300  0.65034212  0.21477340     0.12000
H401        H  0.85358217  0.64925762  0.37261504     0.14800
H402        H  0.80532008  0.52233293  0.32276720     0.14600
C403        C  0.25368939  0.67036482  0.93195635    -0.18300
C404        C  0.28480145  0.67076150  0.89687966    -0.20500
C405        C  0.29530979  0.63094791  0.87390839     0.20200
C406        C  0.27392870  0.59045535  0.88601975    -0.03400
C407        C  0.24259135  0.59006306  0.92143986    -0.06400
C408        C  0.23261065  0.63019415  0.94463403     0.20500
C409        C  0.22160513  0.54945267  0.93389714     0.18600
C410        C  0.23156110  0.50979162  0.91044234    -0.19900
C411        C  0.26266616  0.51019941  0.87536576    -0.20100
C412        C  0.28429455  0.55022970  0.86318224     0.20100
C413        C  0.31666264  0.55057555  0.82913078    -0.33200
C414        C  0.33890804  0.59059849  0.81752413     0.00800
C415        C  0.32743761  0.63081380  0.83961484    -0.24500
C416        C  0.20188835  0.62939329  0.98018826    -0.29100
C417        C  0.18117456  0.58896484  0.99306494     0.06500
C418        C  0.19115400  0.54913993  0.96968994    -0.27700
H419        H  0.24631897  0.70150154  0.94938506     0.11200
H420        H  0.30090308  0.70210334  0.88795537     0.12300
H421        H  0.21555242  0.47842504  0.91944970     0.11400
H422        H  0.27012643  0.47904002  0.85801779     0.10700
H423        H  0.32492792  0.51945303  0.81208829     0.16000
H424        H  0.34430701  0.66186600  0.83101594     0.12000
H425        H  0.19424814  0.66027119  0.99796569     0.14800
H426        H  0.17501928  0.51792772  0.97913647     0.14600
C427        C  0.92833295  0.67565582  0.92856793    -0.18300
C428        C  0.89512034  0.67601045  0.89536931    -0.20500
C429        C  0.87796964  0.63550869  0.87846397     0.20200
C430        C  0.89448745  0.59424780  0.89511444    -0.03400
C431        C  0.92794421  0.59386719  0.92850505    -0.06400
C432        C  0.94490847  0.63475819  0.94538931     0.20500
C433        C  0.94433036  0.55250969  0.94501973     0.18600
C434        C  0.92734687  0.51202446  0.92812009    -0.17900
C435        C  0.89417564  0.51238993  0.89509510    -0.20100
C436        C  0.87757609  0.55328616  0.87845319     0.20100
C437        C  0.84437311  0.55376748  0.84536371    -0.33200
C438        C  0.82770377  0.59465472  0.82839900     0.00800
C439        C  0.84466688  0.63545718  0.84520708    -0.24500
C440        C  0.97802231  0.63394494  0.97885583    -0.29100
C441        C  0.99425944  0.59272227  0.99551006     0.06500
C442        C  0.97732689  0.55224867  0.97826961    -0.27700
H443        H  0.94100579  0.70732576  0.94112017     0.11200
H444        H  0.88281580  0.70801430  0.88292270     0.12300
H445        H  0.93967659  0.48001023  0.94051772     0.11400
H446        H  0.88150266  0.48071248  0.88257137     0.10700
H447        H  0.83164604  0.52210608  0.83280135     0.16000
H448        H  0.83204963  0.66721276  0.83244939     0.12000
H449        H  0.99104697  0.66529106  0.99192973     0.14800
H450        H  0.98971944  0.52032268  0.99085232     0.14600
loop_ 
_geom_bond_atom_site_label_1 
_geom_bond_atom_site_label_2 
_geom_bond_distance 
_geom_bond_site_symmetry_2 
_ccdc_geom_bond_type 
C1            N2   1.356       .  A
C1            N6   1.357       .  A
C1          C129   1.455       .  S
N2            C3   1.355       .  A
C3            N4   1.354       .  A
C3           C47   1.452       .  S
N4            C5   1.354       .  A
C5            N6   1.357       .  A
C5           C85   1.454       .  S
C7            N8   1.357       .  A
C7           N12   1.356       .  A
C7          C139   1.457       .  S
N8            C9   1.357       .  A
C9           N10   1.356       .  A
C9           C89   1.458       .  S
N10          C11   1.356       .  A
C11          N12   1.356       .  A
C11          C45   1.454       .  S
C13          N14   1.355       .  A
C13          N18   1.356       .  A
C13         C145   1.455       .  S
N14          C15   1.356       .  A
C15          N16   1.356       .  A
C15          C91   1.456       .  S
N16          C17   1.357       .  A
C17          N18   1.356       .  A
C17          C53   1.456       .  S
C19          N20   1.356       .  A
C19          N24   1.357       .  A
C19         C133   1.454       .  S
N20          C21   1.355       .  A
C21          N22   1.356       .  A
C21          C83   1.453       .  S
N22          C23   1.356       .  A
C23          N24   1.356       .  A
C23          C51   1.455       .  S
C25          N26   1.357       .  A
C25          N30   1.355       .  A
C25         C135   1.455       .  S
N26          C27   1.357       .  A
C27          N28   1.357       .  A
C27          C63   1.457       .  S
N28          C29   1.356       .  A
C29          N30   1.355       .  A
C29          C95   1.455       .  S
C31          N32   1.357       .  A
C31          N36   1.357       .  A
C31         C127   1.457       .  S
N32          C33   1.357       .  A
C33          N34   1.356       .  A
C33          C97   1.457       .  S
N34          C35   1.356       .  A
C35          N36   1.356       .  A
C35          C57   1.456       .  S
C37          N38   1.356       .  A
C37          N42   1.357       .  A
C37         C141   1.455       .  S
N38          C39   1.357       .  A
C39          N40   1.356       .  A
C39         C101   1.453       .  S
N40          C41   1.355       .  A
C41          N42   1.356       .  A
C41          C59   1.456       .  S
C43          N44   1.361       .  A
C43          N48   1.360       .  A
C43         C438   1.480       .  S
N44          C45   1.354       .  A
C45          N46   1.353       .  A
N46          C47   1.354       .  A
C47          N48   1.356       .  A
C49          N50   1.361       .  A
C49          N54   1.361       .  A
C49         C414   1.481       .  S
N50          C51   1.356       .  A
C51          N52   1.353       .  A
N52          C53   1.354       .  A
C53          N54   1.356       .  A
C55          N56   1.359       .  A
C55          N60   1.359       .  A
C55         C393   1.474       .  S
N56          C57   1.355       .  A
C57          N58   1.355       .  A
N58          C59   1.356       .  A
C59          N60   1.356       .  A
C61          N62   1.360       .  A
C61          N66   1.359       .  A
C61         C369   1.480       .  S
N62          C63   1.355       .  A
C63          N64   1.354       .  A
N64          C65   1.355       .  A
C65          N66   1.356       .  A
C65         C119   1.453       .  S
O67          V75   1.897       .  S
O67          C77   1.264       .  A
O68          V75   1.896       .  S
O68          C78   1.264       .  A
O69          V75   1.892       .  S
O69          C79   1.264       .  A
O70          V75   1.898       .  S
O70          C80   1.264       .  A
O71          V76   1.890       .  S
O71          C80   1.264       .  A
O72          V76   1.899       .  S
O72          C79   1.264       .  A
O73          V76   1.897       .  S
O73          C78   1.264       .  A
O74          V76   1.896       .  S
O74          C77   1.264       .  A
V75          V76   2.087       .  T
C77         C417   1.477   1_554  S
C78         C390   1.472   1_455  S
C79         C366   1.476       .  S
C80         C441   1.474   1_454  S
C81          N82   1.358       .  A
C81          N86   1.359       .  A
C81         C342   1.478       .  S
N82          C83   1.354       .  A
C83          N84   1.355       .  A
N84          C85   1.355       .  A
C85          N86   1.355       .  A
C87          N88   1.360       .  A
C87          N92   1.359       .  A
C87         C321   1.480       .  S
N88          C89   1.356       .  A
C89          N90   1.356       .  A
N90          C91   1.356       .  A
C91          N92   1.355       .  A
C93          N94   1.360       .  A
C93          N98   1.360       .  A
C93         C297   1.473       .  S
N94          C95   1.356       .  A
C95          N96   1.355       .  A
N96          C97   1.355       .  A
C97          N98   1.356       .  A
C99         N100   1.361       .  A
C99         N104   1.360       .  A
C99         C273   1.480       .  S
N100        C101   1.356       .  A
C101        N102   1.353       .  A
N102        C103   1.353       .  A
C103        N104   1.355       .  A
C103        C123   1.453       .  S
O105        V113   1.895       .  S
O105        C115   1.264       .  A
O106        V113   1.896       .  S
O106        C116   1.264       .  A
O107        V113   1.889       .  S
O107        C117   1.263       .  A
O108        V113   1.893       .  S
O108        C118   1.264       .  A
O109        V114   1.896       .  S
O109        C118   1.264       .  A
O110        V114   1.901       .  S
O110        C117   1.265       .  A
O111        V114   1.900       .  S
O111        C116   1.264       .  A
O112        V114   1.898       .  S
O112        C115   1.264       .  A
V113        V114   2.087       .  T
C115        C318   1.475   1_554  S
C116        C294   1.472   1_545  S
C117        C345   1.475   1_544  S
C118        C270   1.474       .  S
C119        N120   1.354       .  A
C119        N124   1.355       .  A
N120        C121   1.355       .  A
C121        N122   1.356       .  A
C121        C147   1.452       .  S
N122        C123   1.357       .  A
C123        N124   1.356       .  A
C125        N126   1.362       .  A
C125        N130   1.360       .  A
C125        C246   1.484       .  S
N126        C127   1.358       .  A
C127        N128   1.354       .  A
N128        C129   1.353       .  A
C129        N130   1.355       .  A
C131        N132   1.360       .  A
C131        N136   1.360       .  A
C131        C225   1.477       .  S
N132        C133   1.357       .  A
C133        N134   1.354       .  A
N134        C135   1.353       .  A
C135        N136   1.355       .  A
C137        N138   1.361       .  A
C137        N142   1.358       .  A
C137        C201   1.473       .  S
N138        C139   1.358       .  A
C139        N140   1.356       .  A
N140        C141   1.354       .  A
C141        N142   1.354       .  A
C143        N144   1.361       .  A
C143        N148   1.359       .  A
C143        C174   1.480       .  S
N144        C145   1.356       .  A
C145        N146   1.354       .  A
N146        C147   1.353       .  A
C147        N148   1.354       .  A
O149        V157   1.899       .  S
O149        C159   1.264       .  A
O150        V157   1.896       .  S
O150        C160   1.264       .  A
O151        V157   1.895       .  S
O151        C161   1.264       .  A
O152        V157   1.899       .  S
O152        C162   1.265       .  A
O153        V158   1.891       .  S
O153        C162   1.263       .  A
O154        V158   1.901       .  S
O154        C161   1.265       .  A
O155        V158   1.898       .  S
O155        C160   1.264       .  A
O156        V158   1.896       .  S
O156        C159   1.264       .  A
V157        V158   2.088       .  T
C159        C198   1.470   1_455  S
C160        C222   1.473       .  S
C161        C249   1.479   1_545  S
C162        C177   1.474       .  S
C163        C164   1.398       .  A
C163        C168   1.403       .  A
C163        H179   1.083       .  S
C164        C165   1.403       .  A
C164        H180   1.085       .  S
C165        C175   1.400       .  A
C165        C166   1.410       .  A
C166        C172   1.411       .  A
C166        C167   1.409       .  A
C167        C169   1.411       .  A
C167        C168   1.412       .  A
C168        C176   1.402       .  A
C169        C178   1.398       .  A
C169        C170   1.402       .  A
C170        C171   1.397       .  A
C170        H181   1.084       .  S
C171        C172   1.403       .  A
C171        H182   1.083       .  S
C172        C173   1.400       .  A
C173        C174   1.406       .  A
C173        H183   1.083       .  S
C174        C175   1.408       .  A
C175        H184   1.084       .  S
C176        C177   1.406       .  A
C176        H185   1.084       .  S
C177        C178   1.405       .  A
C178        H186   1.085       .  S
C187        C188   1.398       .  A
C187        C192   1.403       .  A
C187        H203   1.084       .  S
C188        C189   1.403       .  A
C188        H204   1.083       .  S
C189        C199   1.402       .  A
C189        C190   1.413       .  A
C190        C196   1.411       .  A
C190        C191   1.410       .  A
C191        C193   1.413       .  A
C191        C192   1.411       .  A
C192        C200   1.400       .  A
C193        C202   1.403       .  A
C193        C194   1.403       .  A
C194        C195   1.399       .  A
C194        H205   1.083       .  S
C195        C196   1.403       .  A
C195        H206   1.084       .  S
C196        C197   1.401       .  A
C197        C198   1.404       .  A
C197        H207   1.085   1_655  S
C198        C199   1.404       .  A
C199        H208   1.084       .  S
C200        C201   1.405       .  A
C200        H209   1.085       .  S
C201        C202   1.405       .  A
C202        H210   1.084       .  S
C211        C212   1.400       .  A
C211        C216   1.404       .  A
C211        H227   1.083       .  S
C212        C213   1.404       .  A
C212        H228   1.085       .  S
C213        C223   1.403       .  A
C213        C214   1.412       .  A
C214        C220   1.412       .  A
C214        C215   1.410       .  A
C215        C217   1.411       .  A
C215        C216   1.412       .  A
C216        C224   1.403       .  A
C217        C226   1.399       .  A
C217        C218   1.402       .  A
C218        C219   1.397       .  A
C218        H229   1.084       .  S
C219        C220   1.403       .  A
C219        H230   1.083       .  S
C220        C221   1.400       .  A
C221        C222   1.404   1_565  A
C221        H231   1.084       .  S
C222        C223   1.406   1_545  A
C223        H232   1.085   1_565  S
C224        C225   1.407       .  A
C224        H233   1.084       .  S
C225        C226   1.405       .  A
C226        H234   1.085       .  S
C235        C236   1.399       .  A
C235        C240   1.403       .  A
C235        H251   1.085       .  S
C236        C237   1.404       .  A
C236        H252   1.083       .  S
C237        C247   1.402       .  A
C237        C238   1.410       .  A
C238        C244   1.412       .  A
C238        C239   1.411       .  A
C239        C241   1.410       .  A
C239        C240   1.412       .  A
C240        C248   1.403       .  A
C241        C250   1.401       .  A
C241        C242   1.404       .  A
C242        C243   1.398       .  A
C242        H253   1.083       .  S
C243        C244   1.403       .  A
C243        H254   1.085       .  S
C244        C245   1.402       .  A
C245        C246   1.407       .  A
C245        H255   1.084       .  S
C246        C247   1.409       .  A
C247        H256   1.083       .  S
C248        C249   1.406   1_655  A
C248        H257   1.085       .  S
C249        C250   1.407   1_455  A
C250        H258   1.084   1_655  S
C259        C260   1.397       .  A
C259        C264   1.403       .  A
C259        H275   1.084       .  S
C260        C261   1.403       .  A
C260        H276   1.083       .  S
C261        C271   1.400       .  A
C261        C262   1.411       .  A
C262        C268   1.411       .  A
C262        C263   1.409       .  A
C263        C265   1.411       .  A
C263        C264   1.411       .  A
C264        C272   1.400       .  A
C265        C274   1.401       .  A
C265        C266   1.403       .  A
C266        C267   1.398       .  A
C266        H277   1.083       .  S
C267        C268   1.403       .  A
C267        H278   1.084       .  S
C268        C269   1.401       .  A
C269        C270   1.406       .  A
C269        H279   1.084       .  S
C270        C271   1.406       .  A
C271        H280   1.084       .  S
C272        C273   1.407       .  A
C272        H281   1.084       .  S
C273        C274   1.408       .  A
C274        H282   1.084       .  S
C283        C284   1.398       .  A
C283        C288   1.403       .  A
C283        H299   1.084       .  S
C284        C285   1.403       .  A
C284        H300   1.084       .  S
C285        C295   1.401       .  A
C285        C286   1.411       .  A
C286        C292   1.412       .  A
C286        C287   1.410       .  A
C287        C289   1.412       .  A
C287        C288   1.412       .  A
C288        C296   1.401       .  A
C289        C298   1.402       .  A
C289        C290   1.403       .  A
C290        C291   1.399       .  A
C290        H301   1.084       .  S
C291        C292   1.403       .  A
C291        H302   1.084       .  S
C292        C293   1.402       .  A
C293        C294   1.405       .  A
C293        H303   1.084   1_565  S
C294        C295   1.405       .  A
C295        H304   1.084       .  S
C296        C297   1.405       .  A
C296        H305   1.084       .  S
C297        C298   1.405       .  A
C298        H306   1.084       .  S
C307        C308   1.398       .  A
C307        C312   1.404       .  A
C307        H323   1.084       .  S
C308        C309   1.403       .  A
C308        H324   1.084       .  S
C309        C319   1.402       .  A
C309        C310   1.412       .  A
C310        C316   1.411       .  A
C310        C311   1.410       .  A
C311        C313   1.411       .  A
C311        C312   1.411       .  A
C312        C320   1.401       .  A
C313        C322   1.400       .  A
C313        C314   1.403       .  A
C314        C315   1.397       .  A
C314        H325   1.084       .  S
C315        C316   1.403       .  A
C315        H326   1.083       .  S
C316        C317   1.400       .  A
C317        C318   1.406       .  A
C317        H327   1.084       .  S
C318        C319   1.406       .  A
C319        H328   1.084       .  S
C320        C321   1.408       .  A
C320        H329   1.084       .  S
C321        C322   1.407       .  A
C322        H330   1.084       .  S
C331        C332   1.398       .  A
C331        C336   1.403       .  A
C331        H347   1.083       .  S
C332        C333   1.403       .  A
C332        H348   1.084       .  S
C333        C343   1.400       .  A
C333        C334   1.410       .  A
C334        C340   1.411       .  A
C334        C335   1.409       .  A
C335        C337   1.410       .  A
C335        C336   1.412       .  A
C336        C344   1.402       .  A
C337        C346   1.398       .  A
C337        C338   1.403       .  A
C338        C339   1.397       .  A
C338        H349   1.084       .  S
C339        C340   1.403       .  A
C339        H350   1.084       .  S
C340        C341   1.399       .  A
C341        C342   1.407       .  A
C341        H351   1.084       .  S
C342        C343   1.408       .  A
C343        H352   1.084       .  S
C344        C345   1.406       .  A
C344        H353   1.084       .  S
C345        C346   1.406       .  A
C346        H354   1.084       .  S
C355        C356   1.400       .  A
C355        C360   1.404       .  A
C355        H371   1.085       .  S
C356        C357   1.404       .  A
C356        H372   1.082       .  S
C357        C367   1.404       .  A
C357        C358   1.411       .  A
C358        C364   1.411       .  A
C358        C359   1.409       .  A
C359        C361   1.411       .  A
C359        C360   1.411       .  A
C360        C368   1.403       .  A
C361        C370   1.398       .  A
C361        C362   1.402       .  A
C362        C363   1.395       .  A
C362        H373   1.082       .  S
C363        C364   1.402       .  A
C363        H374   1.085       .  S
C364        C365   1.397       .  A
C365        C366   1.405       .  A
C365        H375   1.085       .  S
C366        C367   1.408       .  A
C367        H376   1.084       .  S
C368        C369   1.409       .  A
C368        H377   1.085       .  S
C369        C370   1.406       .  A
C370        H378   1.083       .  S
C379        C380   1.397       .  A
C379        C384   1.403       .  A
C379        H395   1.084       .  S
C380        C381   1.403       .  A
C380        H396   1.083       .  S
C381        C391   1.401       .  A
C381        C382   1.412       .  A
C382        C388   1.412       .  A
C382        C383   1.410       .  A
C383        C385   1.412       .  A
C383        C384   1.411       .  A
C384        C392   1.400       .  A
C385        C394   1.402       .  A
C385        C386   1.403       .  A
C386        C387   1.398       .  A
C386        H397   1.083       .  S
C387        C388   1.403       .  A
C387        H398   1.084       .  S
C388        C389   1.401       .  A
C389        C390   1.405       .  A
C389        H399   1.085       .  S
C390        C391   1.405       .  A
C391        H400   1.084   1_655  S
C392        C393   1.405       .  A
C392        H401   1.085       .  S
C393        C394   1.405       .  A
C394        H402   1.084       .  S
C403        C404   1.398       .  A
C403        C408   1.403       .  A
C403        H419   1.085       .  S
C404        C405   1.404       .  A
C404        H420   1.083       .  S
C405        C415   1.401       .  A
C405        C406   1.411       .  A
C406        C412   1.411       .  A
C406        C407   1.410       .  A
C407        C409   1.411       .  A
C407        C408   1.411       .  A
C408        C416   1.401       .  A
C409        C418   1.401       .  A
C409        C410   1.403       .  A
C410        C411   1.398       .  A
C410        H421   1.083       .  S
C411        C412   1.403       .  A
C411        H422   1.085       .  S
C412        C413   1.401       .  A
C413        C414   1.407       .  A
C413        H423   1.085       .  S
C414        C415   1.408       .  A
C415        H424   1.083       .  S
C416        C417   1.406       .  A
C416        H425   1.085       .  S
C417        C418   1.406       .  A
C418        H426   1.084       .  S
C427        C428   1.400       .  A
C427        C432   1.404       .  A
C427        H443   1.083       .  S
C428        C429   1.404       .  A
C428        H444   1.084       .  S
C429        C439   1.403       .  A
C429        C430   1.411       .  A
C430        C436   1.410       .  A
C430        C431   1.409       .  A
C431        C433   1.411       .  A
C431        C432   1.412       .  A
C432        C440   1.403       .  A
C433        C442   1.396       .  A
C433        C434   1.402       .  A
C434        C435   1.395       .  A
C434        H445   1.084       .  S
C435        C436   1.402       .  A
C435        H446   1.083       .  S
C436        C437   1.397       .  A
C437        C438   1.406       .  A
C437        H447   1.083       .  S
C438        C439   1.408       .  A
C439        H448   1.084       .  S
C440        C441   1.407       .  A
C440        H449   1.084       .  S
C441        C442   1.404       .  A
C442        H450   1.085       .  S
