geometry optimzed in LAMMPS
_audit_creation_date              2020-12-01 
_audit_creation_method            'lammps2cif' 
_symmetry_space_group_name_H-M    'P1' 
_symmetry_Int_Tables_number       1 
_symmetry_cell_setting            triclinic 
loop_ 
_symmetry_equiv_pos_as_xyz 
  x,y,z 
_cell_length_a                    50.38761356 
_cell_length_b                    52.06916596403075 
_cell_length_c                    36.10793322143837 
_cell_angle_alpha                 90.20595753071046 
_cell_angle_beta                  90.68265283102154 
_cell_angle_gamma                 121.98565241048563 
loop_ 
_atom_site_label 
_atom_site_type_symbol 
_atom_site_fract_x 
_atom_site_fract_y 
_atom_site_fract_z 
_atom_site_charge 
Zr1        Zr  0.41829069  0.05497597  0.23524337     2.17500
O2          O  0.39474369  0.00976267  0.27347675    -0.52000
O3          O  0.44911770  0.08840093  0.28628404    -0.75200
O4          O  0.44874087  0.03003597  0.23714187    -0.81900
O5          O  0.34730093  0.06249615  0.24948875    -0.83700
O6          O  0.48277341  0.05002164  0.18943847    -0.79300
O7          O  0.37617533  0.04546968  0.27667926    -0.91000
O8          O  0.45778354  0.13510679  0.27495424    -0.76900
O9          O  0.46570044  0.09662434  0.21197215    -0.86400
O10         O  0.41084063  0.09642196  0.23035591    -0.86100
O11         O  0.42342245  0.03815162  0.17526422    -0.72900
O12         O  0.37328099  0.03861343  0.19534212    -0.85000
Zr13       Zr  0.42069651  0.10592499  0.10526822     2.26400
Zr14       Zr  0.47059185  0.08046564  0.15162303     2.06300
Zr15       Zr  0.36807904  0.08144542  0.18901505     2.10000
Zr16       Zr  0.45770821  0.13783712  0.20761689     1.78800
O17         O  0.31221099  0.04483878  0.18065293    -0.93800
O18         O  0.51313260  0.16349422  0.22422480    -0.41600
O19         O  0.41508298  0.12358562  0.16479868    -0.78200
O20         O  0.46465348  0.12301838  0.14744636    -0.96900
O21         O  0.42710007  0.06389129  0.11001376    -0.90200
O22         O  0.37306307  0.06485682  0.12927964    -0.93100
C23         C  0.45494874  0.11450054  0.29689011     1.00700
C24         C  0.35361369  0.05023480  0.27604334     1.13600
C25         C  0.47098918  0.03240973  0.21716572     1.04400
O26         O  0.02409920  0.10925098  0.16555006    -0.95200
O27         O  0.49941685  0.11115070  0.09943858    -0.91000
O28         O  0.47016570  0.12756142  0.07214812    -0.84100
C29         C  0.49513609  0.12672906  0.07546547     1.11000
O30         O  0.34894828  0.47271147  0.16291769    -0.97200
Zr31       Zr  0.37985966  0.02322709  0.13545510     1.88900
O32         O  0.38864914  0.07066262  0.05500197    -0.73800
O33         O  0.48011486  0.04880365  0.11096331    -0.53100
O34         O  0.39476595  0.98866502  0.11228201    -0.97800
O35         O  0.32323627  0.99574189  0.12560216    -0.55000
O36         O  0.37418366  0.02265154  0.06976310    -0.74400
C37         C  0.37627880  0.04236127  0.04721713     0.98000
O38         O  0.43206172  0.13939573  0.05269334    -0.63200
O39         O  0.35749423  0.11581640  0.22230745    -0.58000
O40         O  0.39480205  0.13470824  0.10916520    -0.94700
O41         O  0.35266453  0.10562028  0.14474136    -0.93100
O42         O  0.43706007  0.16934459  0.22403783    -0.93400
O43         O  0.49055701  0.18942019  0.18519785    -0.92200
C44         C  0.36825765  0.12752744  0.12257893     1.16800
H45         H  0.40559972  0.10161018  0.25365674     0.32800
H46         H  0.48331006  0.14074929  0.13851016     0.43600
H47         H  0.35538180  0.06014726  0.11354808     0.37100
H48         H  0.42447405  0.02022038  0.17640140     0.33600
H49         H  0.51401911  0.15430623  0.24779468     0.25400
H50         H  0.47103259  0.04916871  0.08664770     0.31400
H51         H  0.40793334  0.99887541  0.09055258     0.37300
H52         H  0.44317933  0.17507250  0.25034362     0.31700
H53         H  0.37136420  0.13590179  0.21114560     0.30600
H54         H  0.30697590  0.04827959  0.15538114     0.32300
H55         H  0.31475352  0.51069867  0.11672915     0.31300
H56         H  0.49726772  0.20268207  0.20749595     0.35200
H57         H  0.41147882  0.13353449  0.04168174     0.28000
H58         H  0.41166470  0.01194363  0.28994053     0.32200
H59         H  0.35588872  0.47585930  0.18920749     0.35100
H60         H  0.33610110  0.10989713  0.21427981     0.27700
H61         H  0.44048111  0.15987890  0.06341365     0.40500
H62         H  0.03328995  0.09737930  0.15777354     0.30600
H63         H  0.52204378  0.15615589  0.20575895     0.38200
H64         H  0.31466251  0.99600493  0.15003821     0.30100
H65         H  0.50301269  0.06050610  0.10719247     0.30100
H66         H  0.38993789  0.99288706  0.25634218     0.30400
C67         C  0.44779683  0.09827177  0.39663458     0.79600
N68         N  0.45219761  0.12421624  0.41124981    -0.78700
C69         C  0.45857407  0.14785169  0.38925933     0.82000
N70         N  0.46082766  0.14578169  0.35194484    -0.78700
C71         C  0.45619082  0.11958237  0.33704031     0.82100
N72         N  0.45001067  0.09631703  0.35953238    -0.80400
C73         C  0.28068862  0.99075798  0.31343834     0.79600
N74         N  0.30323816  0.01007701  0.29069870    -0.78700
C75         C  0.32942988  0.03506492  0.30337039     0.82000
N76         N  0.33365363  0.04176024  0.34037514    -0.78700
C77         C  0.31056817  0.02282256  0.36396657     0.82100
N78         N  0.28476635  0.99709612  0.35034420    -0.80400
C79         C  0.07156919  0.18708343  0.05982981     0.79600
N80         N  0.04581295  0.16348727  0.07482490    -0.78700
C81         C  0.02072022  0.14397513  0.05346710     0.82000
N82         N  0.02124327  0.14781967  0.01615622    -0.78700
C83         C  0.04762969  0.17099717  0.00069663     0.82100
N84         N  0.07232027  0.19044600  0.02266624    -0.80400
C85         C  0.33829250  0.03591691  0.95704928     0.79600
N86         N  0.35358931  0.04717909  0.98983080    -0.78700
C87         C  0.36219433  0.03107593  0.01051926     0.82000
N88         N  0.35609968  0.00372416  0.99791025    -0.78700
C89         C  0.34055776  0.99225804  0.96517570     0.82100
N90         N  0.33189764  0.00854153  0.94483962    -0.80400
Zr91       Zr  0.21749012  0.24919194  0.43200991     2.17500
O92         O  0.18567269  0.24142047  0.37668118    -0.52000
O93         O  0.25516267  0.27732636  0.38290272    -0.75200
O94         O  0.19382188  0.28095340  0.43271262    -0.81900
O95         O  0.20390627  0.16835593  0.42810224    -0.83700
O96         O  0.22043869  0.31739502  0.47686768    -0.79300
O97         O  0.18682290  0.19783286  0.40473995    -0.91000
O98         O  0.30510028  0.29130492  0.39700754    -0.76900
O99         O  0.26256985  0.29300540  0.45763183    -0.86400
O100        O  0.25794484  0.23810781  0.43666462    -0.86100
O101        O  0.20088199  0.25611861  0.49171553    -0.72900
O102        O  0.19909092  0.20611934  0.47185202    -0.85000
Zr103      Zr  0.26920829  0.24715438  0.56440337     2.26400
Zr104      Zr  0.24667201  0.29972964  0.51722935     2.06300
Zr105      Zr  0.24052225  0.19639745  0.47802628     2.10000
Zr106      Zr  0.30268013  0.28173254  0.46312726     1.78800
O107        O  0.20959987  0.14179906  0.48704201    -0.93800
O108        O  0.33358175  0.33666647  0.45732483    -0.41600
O109        O  0.28562105  0.24007391  0.50467953    -0.78200
O110        O  0.28815951  0.28991569  0.52305923    -0.96900
O111        O  0.22852210  0.25778272  0.55763520    -0.90200
O112        O  0.22418509  0.20242130  0.53789127    -0.93100
C113        C  0.28420465  0.28942206  0.37466988     1.00700
C114        C  0.18653255  0.17293949  0.40648971     1.13600
C115        C  0.19993266  0.30516664  0.45051800     1.04400
O116        O  0.28524381  0.35293795  0.50634210    -0.95200
O117        O  0.27362310  0.32357394  0.57477319    -0.91000
O118        O  0.29302882  0.29604821  0.59832398    -0.84100
C119        C  0.29077441  0.31962625  0.59760680     1.11000
O120        O  0.13801206  0.21105306  0.50418093    -0.97200
Zr121      Zr  0.18407858  0.21376705  0.53119779     1.88900
O122        O  0.23008763  0.21552186  0.61092138    -0.73800
O123        O  0.21195176  0.30720988  0.55595183    -0.53100
O124        O  0.13817251  0.19879702  0.56873660    -0.97800
O125        O  0.15877210  0.15877198  0.53035957    -0.55000
O126        O  0.19942081  0.23161316  0.59406403    -0.74400
C127        C  0.20477168  0.21530240  0.61488007     0.98000
O128        O  0.30361435  0.25739549  0.61785617    -0.63200
O129        O  0.27365213  0.19120134  0.43385616    -0.58000
O130        O  0.29571450  0.21805695  0.56097682    -0.94700
O131        O  0.26931116  0.18097512  0.51750820    -0.93100
O132        O  0.33221873  0.26090684  0.43821955    -0.93400
O133        O  0.35464453  0.30396870  0.49114263    -0.89800
C134        C  0.28992040  0.19374348  0.54367963     1.16800
H135        H  0.26227961  0.23305495  0.41260337     0.32800
H136        H  0.30688666  0.30772894  0.53316020     0.43600
H137        H  0.21768926  0.18464407  0.55264794     0.37100
H138        H  0.18380075  0.25942415  0.49101593     0.33600
H139        H  0.35059511  0.34080395  0.44022126     0.25400
H140        H  0.21309528  0.32555334  0.54635969     0.31400
H141        H  0.12264666  0.17734496  0.56240725     0.37300
H142        H  0.32021748  0.24910581  0.41597433     0.31700
H143        H  0.29199782  0.19467368  0.44856992     0.30600
H144        H  0.21836983  0.13346288  0.46976455     0.32300
H145        H  0.16834526  0.15426150  0.50958861     0.31300
H146        H  0.35086754  0.29954014  0.51787416     0.35200
H147        H  0.29677585  0.23734142  0.62845645     0.28000
H148        H  0.19461086  0.26170376  0.36562632     0.32200
H149        H  0.13194734  0.19684905  0.48292126     0.35100
H150        H  0.26212355  0.16937303  0.42734692     0.27700
H151        H  0.32450854  0.26458700  0.60750738     0.40500
H152        H  0.27498072  0.36378887  0.51426420     0.30600
H153        H  0.32013053  0.34171073  0.44291388     0.38200
H154        H  0.13710554  0.15100463  0.52153318     0.30100
H155        H  0.19060445  0.29033600  0.54913990     0.30100
H156        H  0.16490338  0.23607722  0.38577987     0.30400
Zr157      Zr  0.36264829  0.45304830  0.76771271     2.17500
O158        O  0.38659549  0.48775928  0.71613868    -0.52000
O159        O  0.35103594  0.41829376  0.71566331    -0.75200
O160        O  0.42046406  0.47754401  0.76636023    -0.81900
O161        O  0.28885446  0.45889362  0.76398534    -0.83700
O162        O  0.43373265  0.45670509  0.81269653    -0.79300
O163        O  0.33800859  0.47887316  0.74151625    -0.91000
O164        O  0.31696731  0.36928896  0.73092440    -0.76900
O165        O  0.36464748  0.41179434  0.79258041    -0.86400
O166        O  0.30960172  0.41148586  0.77259549    -0.86100
O167        O  0.38864941  0.47127116  0.82714921    -0.72900
O168        O  0.33616481  0.46889760  0.80788134    -0.85000
Zr169      Zr  0.31038780  0.40354370  0.90003747     2.26400
Zr170      Zr  0.38879364  0.42905389  0.85252973     2.06300
Zr171      Zr  0.28368717  0.42655208  0.81435980     2.10000
Zr172      Zr  0.31181442  0.37061185  0.79798297     1.78800
O173        O  0.25986314  0.45546425  0.82963504    -0.93800
O174        O  0.34056799  0.34522206  0.79102919    -0.41600
O175        O  0.28534606  0.38528917  0.84009035    -0.78200
O176        O  0.33592031  0.38664992  0.85837275    -0.96900
O177        O  0.36335275  0.44517696  0.89326900    -0.90200
O178        O  0.30839124  0.44499616  0.87357298    -0.93100
C179        C  0.33365343  0.38993883  0.70746271     1.00700
C180        C  0.31143968  0.47679941  0.74309444     1.13600
C181        C  0.44060092  0.47437447  0.78491173     1.04400
O182        O  0.40711898  0.39537032  0.83780865    -0.95200
O183        O  0.38885861  0.40459078  0.90904560    -0.91000
O184        O  0.33997851  0.38415159  0.93263942    -0.84100
C185        C  0.36737079  0.38764293  0.93173785     1.11000
O186        O  0.39913425  0.02986818  0.83314735    -0.97200
Zr187      Zr  0.36149853  0.48610628  0.86663600     1.88900
O188        O  0.31587451  0.44186920  0.94540714    -0.73800
O189        O  0.43225616  0.46443920  0.89285872    -0.53100
O190        O  0.39504488  0.53096752  0.90490073    -0.97800
O191        O  0.33035396  0.50931106  0.86492695    -0.55000
O192        O  0.36442826  0.47465247  0.93013419    -0.74400
C193        C  0.34080677  0.46808608  0.94918235     0.98000
O194        O  0.28242018  0.37230051  0.95305291    -0.63200
O195        O  0.24174272  0.39377793  0.77077824    -0.58000
O196        O  0.25191506  0.37298284  0.89634478    -0.94700
O197        O  0.23847585  0.39566427  0.85277104    -0.93100
O198        O  0.25889393  0.33703840  0.77363370    -0.93400
O199        O  0.28395406  0.32037376  0.82507698    -0.92200
C200        C  0.23145538  0.37639309  0.87872989     1.16800
H201        H  0.29884151  0.40626359  0.74887408     0.32800
H202        H  0.33591072  0.36941593  0.86812887     0.43600
H203        H  0.29625094  0.45072763  0.88796891     0.37100
H204        H  0.40970178  0.48854201  0.82598227     0.33600
H205        H  0.32709033  0.32751608  0.77473696     0.25400
H206        H  0.45100483  0.46559329  0.88266007     0.31400
H207        H  0.37982377  0.04430947  0.89271500     0.37300
H208        H  0.26077865  0.32424998  0.75479073     0.31700
H209        H  0.23568132  0.37299825  0.77764614     0.30600
H210        H  0.24032626  0.44608016  0.81454720     0.32300
H211        H  0.30720577  0.99273203  0.84253427     0.31300
H212        H  0.27954783  0.32374704  0.85069092     0.35200
H213        H  0.28026997  0.35251949  0.94839713     0.28000
H214        H  0.39820923  0.48046898  0.70220006     0.32200
H215        H  0.38862892  0.03351837  0.81230840     0.35100
H216        H  0.22377037  0.39530679  0.77820243     0.27700
H217        H  0.29713546  0.38130282  0.97442471     0.40500
H218        H  0.39019612  0.37513366  0.84597025     0.30600
H219        H  0.35868928  0.35886225  0.77550929     0.38200
H220        H  0.34520489  0.53060008  0.85795204     0.30100
H221        H  0.43520218  0.48444240  0.88765336     0.30100
H222        H  0.40290325  0.50735686  0.72734929     0.30400
C223        C  0.35969854  0.39561543  0.61084319     0.79600
N224        N  0.35738292  0.40200431  0.64667162    -0.78700
C225        C  0.33387169  0.38136508  0.66834983     0.82000
N226        N  0.31189726  0.35357548  0.65373286    -0.78700
C227        C  0.31427372  0.34713859  0.61761860     0.82100
N228        N  0.33810118  0.36808344  0.59698506    -0.80400
C229        C  0.29463363  0.51596008  0.67013304     0.79600
N230        N  0.29831709  0.49480430  0.68731475    -0.78700
C231        C  0.30775997  0.49892936  0.72329272     0.82000
N232        N  0.31388198  0.52412234  0.74179804    -0.78700
C233        C  0.28214584  0.02477719  0.73237787     0.82100
N234        N  0.27798056  0.02571059  0.69519227    -0.80400
C235        C  0.37217798  0.36565940  0.95107656     0.79600
N236        N  0.36405862  0.34020895  0.93150700    -0.78700
C237        C  0.36778404  0.31838552  0.94568818     0.82000
N238        N  0.38058536  0.32270374  0.97996119    -0.78700
C239        C  0.38952374  0.34817572  0.00030266     0.82100
N240        N  0.38511655  0.37000505  0.98592703    -0.80400
Zr241      Zr  0.46943111  0.25204612  0.56541650     2.17500
O242        O  0.44660761  0.27420754  0.60332445    -0.52000
O243        O  0.47315602  0.22419033  0.61705895    -0.75200
O244        O  0.41154284  0.22017881  0.56829390    -0.81900
O245        O  0.04484049  0.32194350  0.57880584    -0.83700
O246        O  0.39660701  0.18791893  0.51893469    -0.79300
O247        O  0.99841634  0.28986373  0.60655938    -0.91000
O248        O  0.00986959  0.21039515  0.60559040    -0.76900
O249        O  0.46385423  0.20651797  0.54251568    -0.86400
O250        O  0.01913025  0.25774807  0.56192541    -0.86100
O251        O  0.44672709  0.24602355  0.50478975    -0.72900
O252        O  0.99696492  0.29112919  0.52472552    -0.85000
Zr253      Zr  0.01973236  0.24541898  0.43622420     2.26400
Zr254      Zr  0.44158080  0.20043855  0.48176782     2.06300
Zr255      Zr  0.04803245  0.29885892  0.52108870     2.10000
Zr256      Zr  0.01436662  0.21286212  0.53897918     1.78800
O257        O  0.06593210  0.35066543  0.50381446    -0.93800
O258        O  0.48400030  0.16124025  0.54884257    -0.41600
O259        O  0.04365629  0.25367835  0.49700752    -0.78200
O260        O  0.49257492  0.20723798  0.47922459    -0.96900
O261        O  0.47073030  0.24146281  0.44031814    -0.90200
O262        O  0.02640205  0.29165422  0.45965209    -0.93100
C263        C  0.49100137  0.21467103  0.62718989     1.00700
C264        C  0.02516721  0.31452704  0.60517296     1.13600
C265        C  0.39056480  0.19820870  0.54788200     1.04400
O266        O  0.41561095  0.14736561  0.49918987    -0.95200
O267        O  0.44373107  0.17228319  0.42988497    -0.91000
O268        O  0.49253507  0.19938025  0.40560259    -0.84100
C269        C  0.46493351  0.17551437  0.40776410     1.11000
O270        O  0.45493689  0.31530494  0.48846118    -0.97200
Zr271      Zr  0.47739256  0.28720675  0.46439589     1.88900
O272        O  0.01192051  0.26968904  0.38236695    -0.73800
O273        O  0.39959780  0.19191793  0.43938747    -0.53100
O274        O  0.42580319  0.27230441  0.44005481    -0.97800
O275        O  0.01031893  0.33739104  0.45143137    -0.55000
O276        O  0.47925563  0.28712781  0.39806370    -0.74400
C277        C  0.99420546  0.27982140  0.37397782     0.98000
O278        O  0.04311095  0.22972849  0.38942514    -0.63200
O279        O  0.09537779  0.31546469  0.55797079    -0.58000
O280        O  0.07768001  0.27611941  0.43624077    -0.94700
O281        O  0.09253508  0.30976026  0.48411366    -0.93100
O282        O  0.06709295  0.23352304  0.56400524    -0.93400
O283        O  0.03720385  0.18527628  0.51438010    -0.92200
C284        C  0.09855133  0.29876959  0.45584499     1.16800
H285        H  0.02939600  0.26327020  0.58593980     0.32800
H286        H  0.49147376  0.18905728  0.47100528     0.43600
H287        H  0.03989587  0.30847321  0.44392629     0.37100
H288        H  0.42671214  0.24427682  0.50590321     0.33600
H289        H  0.46820310  0.15825007  0.56722346     0.25400
H290        H  0.40921850  0.19723018  0.41463401     0.31400
H291        H  0.41904957  0.25380466  0.42508908     0.37300
H292        H  0.08117562  0.24403838  0.54304164     0.31700
H293        H  0.10299395  0.33664364  0.56530802     0.30600
H294        H  0.08842201  0.35995937  0.49852707     0.32300
H295        H  0.51699373  0.35130448  0.47593453     0.31300
H296        H  0.05056446  0.19792353  0.49387916     0.35200
H297        H  0.05618685  0.24776840  0.37406311     0.28000
H298        H  0.43466716  0.25916432  0.62272356     0.32200
H299        H  0.46620900  0.32425563  0.51221576     0.35100
H300        H  0.08804493  0.30390399  0.58124001     0.27700
H301        H  0.05803873  0.22605702  0.40283342     0.40500
H302        H  0.40312835  0.13564173  0.47713597     0.30600
H303        H  0.47190348  0.15283088  0.52542943     0.38200
H304        H  0.99842714  0.34245910  0.43409204     0.30100
H305        H  0.38519476  0.16964389  0.43839280     0.30100
H306        H  0.43065430  0.27455192  0.58741975     0.30400
Zr307      Zr  0.42536568  0.35281539  0.22949498     2.17500
O308        O  0.44094125  0.37724305  0.29041053    -0.52000
O309        O  0.37768638  0.33765740  0.26539326    -0.75200
O310        O  0.45109728  0.40903413  0.22636198    -0.81900
O311        O  0.41997608  0.28326998  0.26144786    -0.83700
O312        O  0.44813365  0.42246718  0.16704188    -0.79300
O313        O  0.45241082  0.33350247  0.26690516    -0.91000
O314        O  0.33567850  0.30731975  0.22807086    -0.76900
O315        O  0.39193141  0.35314564  0.18190598    -0.86400
O316        O  0.38622252  0.30066296  0.21660798    -0.86100
O317        O  0.45757339  0.37649022  0.17573283    -0.72900
O318        O  0.45133841  0.32794669  0.20806287    -0.85000
Zr319      Zr  0.41305776  0.30087088  0.09567115     2.26400
Zr320      Zr  0.42357887  0.37635183  0.12825037     2.06300
Zr321      Zr  0.41226873  0.27621083  0.19498438     2.10000
Zr322      Zr  0.35361916  0.30118671  0.16906840     1.78800
O323        O  0.45069075  0.26190149  0.20427100    -0.93800
O324        O  0.32527612  0.32603260  0.15427226    -0.41600
O325        O  0.37960198  0.27689809  0.14745456    -0.78200
O326        O  0.38450447  0.32404817  0.11541855    -0.96900
O327        O  0.45097230  0.35274935  0.10853802    -0.90200
O328        O  0.44571854  0.29954388  0.14298054    -0.93100
C329        C  0.34798509  0.32127591  0.25871420     1.00700
C330        C  0.44458777  0.30627739  0.27493878     1.13600
C331        C  0.45674510  0.42899188  0.20131458     1.04400
O332        O  0.38703748  0.39345478  0.12495747    -0.95200
O333        O  0.40788751  0.37033757  0.06191971    -0.91000
O334        O  0.40193157  0.32525087  0.04634042    -0.84100
C335        C  0.40105227  0.34879567  0.03853121     1.11000
O336        O  0.01999837  0.38316371  0.20785497    -0.97200
Zr337      Zr  0.48322941  0.35167592  0.15620384     1.88900
O338        O  0.46233043  0.31355804  0.06505662    -0.73800
O339        O  0.46455589  0.41735793  0.09213960    -0.53100
O340        O  0.53027417  0.40050461  0.14360930    -0.97800
O341        O  0.51128755  0.32572579  0.16432353    -0.55000
O342        O  0.50055936  0.35588937  0.09423586    -0.74400
C343        C  0.49059076  0.33660543  0.06788405     0.98000
O344        O  0.39431849  0.26974891  0.03933311    -0.63200
O345        O  0.37238384  0.22963007  0.22439765    -0.58000
O346        O  0.38216475  0.24496627  0.09777834    -0.94700
O347        O  0.38788053  0.23139743  0.15576066    -0.93100
O348        O  0.31488625  0.24994793  0.18826473    -0.93400
O349        O  0.31184267  0.27115420  0.12399809    -0.92200
C350        C  0.37755986  0.22509523  0.12226213     1.16800
H351        H  0.37445525  0.29018832  0.23826201     0.32800
H352        H  0.36954682  0.32213733  0.09695260     0.43600
H353        H  0.45486054  0.28826119  0.13483471     0.37100
H354        H  0.47555957  0.39640009  0.18060987     0.33600
H355        H  0.30402906  0.31239542  0.16405957     0.25400
H356        H  0.46072489  0.43409301  0.09424291     0.31400
H357        H  0.04403533  0.40548275  0.13823749     0.37300
H358        H  0.32209279  0.23709471  0.17781913     0.31700
H359        H  0.38395192  0.22115507  0.23607134     0.30600
H360        H  0.43897406  0.24174460  0.21592856     0.32300
H361        H  0.03713730  0.34866310  0.16063233     0.31300
H362        H  0.32173240  0.26538726  0.10486473     0.35200
H363        H  0.37463455  0.26848876  0.03211189     0.28000
H364        H  0.43113252  0.38938400  0.29246019     0.32200
H365        H  0.00689158  0.38473949  0.22682718     0.35100
H366        H  0.36475083  0.23610083  0.24541905     0.27700
H367        H  0.40935226  0.28211474  0.01988915     0.40500
H368        H  0.38728119  0.40111189  0.15018199     0.30600
H369        H  0.33456228  0.34405324  0.17081680     0.38200
H370        H  0.50950899  0.31587597  0.14014229     0.30100
H371        H  0.48406327  0.42436574  0.10666458     0.30100
H372        H  0.46367752  0.39233156  0.28890570     0.30400
C373        C  0.28416444  0.32913974  0.29064439     0.79600
N374        N  0.30815779  0.33166676  0.27139383    -0.78700
C375        C  0.32550291  0.32086533  0.28478942     0.82000
N376        N  0.31843630  0.30679318  0.31849707    -0.78700
C377        C  0.29357766  0.30372408  0.33784897     0.82100
N378        N  0.27677681  0.31495567  0.32356095    -0.80400
C379        C  0.49275262  0.28881857  0.33604446     0.79600
N380        N  0.46970172  0.29351620  0.32477582    -0.78700
C381        C  0.46881081  0.30141515  0.28923854     0.82000
N382        N  0.49067400  0.30445213  0.26529567    -0.78700
C383        C  0.01322338  0.29967810  0.27544174     0.82100
N384        N  0.51471158  0.29215088  0.31168731    -0.80400
Zr385      Zr  0.25044493  0.47082179  0.44250957     2.17500
O386        O  0.26550562  0.43946143  0.40943627    -0.52000
O387        O  0.22762249  0.47768943  0.38547103    -0.75200
O388        O  0.21773244  0.41548326  0.43953791    -0.81900
O389        O  0.31811073  0.05209459  0.41925142    -0.83700
O390        O  0.18093676  0.40203176  0.48371351    -0.79300
O391        O  0.30507158  0.00473319  0.42467936    -0.91000
O392        O  0.21021012  0.50957738  0.39445419    -0.76900
O393        O  0.20326897  0.46731363  0.45988304    -0.86400
O394        O  0.25859973  0.02173892  0.43976780    -0.86100
O395        O  0.24094041  0.45037625  0.50368703    -0.72900
O396        O  0.29356984  0.00346503  0.48389437    -0.85000
Zr397      Zr  0.24122184  0.02614137  0.56162751     2.26400
Zr398      Zr  0.19347692  0.44656056  0.52056684     2.06300
Zr399      Zr  0.30058517  0.05281991  0.48273025     2.10000
Zr400      Zr  0.21100798  0.01663364  0.45727756     1.78800
O401        O  0.35253678  0.06568806  0.50283271    -0.93800
O402        O  0.15782560  0.49040791  0.44541063    -0.41600
O403        O  0.25211863  0.04768129  0.50071799    -0.78200
O404        O  0.20140527  0.49632974  0.52036195    -0.96900
O405        O  0.23476097  0.47583160  0.56480279    -0.90200
O406        O  0.29032710  0.03297731  0.54458184    -0.93100
C407        C  0.21584490  0.49307371  0.37390451     1.00700
C408        C  0.31343318  0.02760368  0.40449957     1.13600
C409        C  0.19345954  0.39572532  0.45717163     1.04400
O410        O  0.13954327  0.42081765  0.49787455    -0.95200
O411        O  0.16297788  0.45036577  0.56890237    -0.91000
O412        O  0.19243437  0.49797024  0.59352425    -0.84100
C413        C  0.16729703  0.47155051  0.59106030     1.11000
O414        O  0.30410897  0.45111455  0.52530494    -0.97200
Zr415      Zr  0.28255113  0.48079523  0.54667698     1.88900
O416        O  0.26425001  0.02269662  0.61990663    -0.73800
O417        O  0.18433932  0.40762006  0.56481692    -0.53100
O418        O  0.26090054  0.43363240  0.58066286    -0.97800
O419        O  0.33763867  0.01090202  0.56308383    -0.55000
O420        O  0.28918522  0.49400700  0.61156937    -0.74400
C421        C  0.27658113  0.00798673  0.63159675     0.98000
O422        O  0.21981267  0.04910764  0.60063756    -0.63200
O423        O  0.32422775  0.10260060  0.45460868    -0.58000
O424        O  0.27138771  0.08188591  0.56139204    -0.94700
O425        O  0.30900229  0.09633849  0.51812012    -0.93100
O426        O  0.22934550  0.06628996  0.43124910    -0.93400
O427        O  0.18117212  0.03895218  0.47602627    -0.92200
C428        C  0.29548304  0.10212022  0.54385010     1.16800
H429        H  0.26357409  0.03059681  0.41550372     0.32800
H430        H  0.18261432  0.49584766  0.52676410     0.43600
H431        H  0.30677282  0.04666441  0.56164970     0.37100
H432        H  0.23869208  0.43079571  0.50393785     0.33600
H433        H  0.15595520  0.50083071  0.42357366     0.25400
H434        H  0.18822779  0.41751419  0.58944588     0.31400
H435        H  0.24774182  0.43474474  0.59996610     0.37300
H436        H  0.24979684  0.07252481  0.42029590     0.31700
H437        H  0.34425547  0.10690569  0.44418846     0.30600
H438        H  0.35886050  0.08160106  0.52205323     0.32300
H439        H  0.34486516  0.52663764  0.56978801     0.31300
H440        H  0.19160648  0.05028756  0.49917383     0.35200
H441        H  0.23673119  0.06264304  0.61837537     0.28000
H442        H  0.27660867  0.43461492  0.42828369     0.32200
H443        H  0.31442050  0.44857311  0.54728290     0.35100
H444        H  0.31072501  0.09961863  0.43282173     0.27700
H445        H  0.21675586  0.06267284  0.58443174     0.40500
H446        H  0.13274787  0.43521663  0.50256186     0.30600
H447        H  0.15284334  0.47050276  0.43568553     0.38200
H448        H  0.34902541  0.01832828  0.53954842     0.30100
H449        H  0.16144605  0.39299172  0.56364050     0.30100
H450        H  0.28197890  0.45250582  0.39174809     0.30400
Zr451      Zr  0.11242637  0.20173048  0.90081175     2.17500
O452        O  0.15850240  0.22866755  0.94135748    -0.52000
O453        O  0.07759414  0.19690473  0.94955281    -0.75200
O454        O  0.13586896  0.25771987  0.90178686    -0.81900
O455        O  0.11093347  0.12795845  0.91705955    -0.83700
O456        O  0.11435274  0.26741111  0.85216611    -0.79300
O457        O  0.12527648  0.17345822  0.94366296    -0.91000
O458        O  0.03039321  0.15394224  0.93906105    -0.76900
O459        O  0.06819838  0.20101108  0.87534556    -0.86400
O460        O  0.07106957  0.14958377  0.89655990    -0.86100
O461        O  0.12885470  0.22341271  0.84066850    -0.72900
O462        O  0.12991874  0.17548430  0.86289214    -0.85000
Zr463      Zr  0.05930027  0.14581245  0.77046167     2.26400
Zr464      Zr  0.08399684  0.22182044  0.81465153     2.06300
Zr465      Zr  0.08704514  0.12397835  0.85663075     2.10000
Zr466      Zr  0.02704471  0.14891700  0.87199001     1.78800
O467        O  0.12587125  0.11122430  0.84244292    -0.93800
O468        O  0.00070853  0.17599292  0.88446120    -0.41600
O469        O  0.04256088  0.12297127  0.83061922    -0.78200
O470        O  0.04115075  0.17005825  0.81156085    -0.96900
O471        O  0.10176386  0.19720888  0.77496430    -0.90200
O472        O  0.10295071  0.14545144  0.79647236    -0.93100
C473        C  0.05156084  0.17430716  0.96056966     1.00700
C474        C  0.12304940  0.14767269  0.94346354     1.13600
C475        C  0.13231198  0.27592316  0.88099735     1.04400
O476        O  0.05320778  0.24441351  0.82703349    -0.95200
O477        O  0.04906096  0.21390432  0.76314625    -0.91000
O478        O  0.03197455  0.16722948  0.73848420    -0.84100
C479        C  0.03209931  0.19200916  0.74051002     1.11000
O480        O  0.19746678  0.22838428  0.82927459    -0.97200
Zr481      Zr  0.14497786  0.19695426  0.80276577     1.88900
O482        O  0.09655661  0.15536861  0.72051112    -0.73800
O483        O  0.11644960  0.26054349  0.76998087    -0.53100
O484        O  0.17869332  0.24741518  0.77774821    -0.97800
O485        O  0.17513547  0.17262959  0.80324611    -0.55000
O486        O  0.14688371  0.18952966  0.73769660    -0.74400
C487        C  0.12607771  0.17217310  0.71388040     0.98000
O488        O  0.02812360  0.12052451  0.71468802    -0.63200
O489        O  0.05492487  0.07668686  0.88966469    -0.58000
O490        O  0.03136987  0.08991274  0.77323530    -0.94700
O491        O  0.05660289  0.07952108  0.81756260    -0.93100
O492        O  0.99492500  0.09772550  0.89568931    -0.93400
O493        O  0.47362870  0.12321457  0.85152175    -0.92200
C494        C  0.03662836  0.07154185  0.79087227     1.16800
H495        H  0.06652026  0.13977246  0.92028042     0.32800
H496        H  0.02203418  0.16821258  0.80294256     0.43600
H497        H  0.10830175  0.13356709  0.78131750     0.37100
H498        H  0.14682744  0.24380299  0.84192960     0.33600
H499        H  0.01423615  0.19185396  0.90293187     0.25400
H500        H  0.11056810  0.24996006  0.74565122     0.31400
H501        H  0.16539546  0.24977058  0.75940938     0.37300
H502        H  0.00979402  0.09115594  0.90057725     0.31700
H503        H  0.06835472  0.06821706  0.89287143     0.30600
H504        H  0.12072432  0.09393335  0.85863634     0.32300
H505        H  0.16231820  0.15332942  0.78938259     0.31300
H506        H  0.46093495  0.11803235  0.87416153     0.35200
H507        H  0.03580439  0.10775680  0.70528442     0.28000
H508        H  0.15429524  0.24095518  0.95849268     0.32200
H509        H  0.19468895  0.22514302  0.85631191     0.35100
H510        H  0.05275531  0.08266254  0.91496740     0.27700
H511        H  0.00660115  0.10605150  0.72314133     0.40500
H512        H  0.06561780  0.26517146  0.81706688     0.30600
H513        H  0.00300286  0.18724167  0.86145517     0.38200
H514        H  0.17488742  0.16659228  0.82927559     0.30100
H515        H  0.10801499  0.27392055  0.76903946     0.30100
H516        H  0.17559989  0.24349798  0.92540151     0.30400
C517        C  0.13043745  0.14351587  0.62187915     0.79600
N518        N  0.15955430  0.16515191  0.61150503    -0.78700
C519        C  0.17760270  0.18998294  0.63277262     0.82000
N520        N  0.16633762  0.19313888  0.66547734    -0.78700
C521        C  0.13731390  0.17081330  0.67688569     0.82100
N522        N  0.11944485  0.14615496  0.65485056    -0.80400
C523        C  0.00824913  0.19408351  0.71966746     0.79600
N524        N  0.01183631  0.20193535  0.68322979    -0.78700
C525        C  0.98963257  0.20514076  0.66577046     0.82000
N526        N  0.46171685  0.19626746  0.68330402    -0.78700
C527        C  0.45730433  0.18588163  0.71827537     0.82100
N528        N  0.98213904  0.18836706  0.73780588    -0.80400
Zr529      Zr  0.20044587  0.11520528  0.11079788     2.17500
O530        O  0.23147203  0.16018957  0.07361041    -0.52000
O531        O  0.19356862  0.08782385  0.05278734    -0.75200
O532        O  0.25709923  0.13717982  0.11189380    -0.81900
O533        O  0.12441743  0.10777242  0.08333735    -0.83700
O534        O  0.26679378  0.11141600  0.15503460    -0.79300
O535        O  0.17507395  0.14144170  0.09173434    -0.91000
O536        O  0.15840039  0.03734915  0.05889531    -0.76900
O537        O  0.19994000  0.07103436  0.12856104    -0.86400
O538        O  0.14708283  0.07386410  0.10545896    -0.86100
O539        O  0.22094536  0.12592978  0.17313978    -0.72900
O540        O  0.17042930  0.12741819  0.15042822    -0.85000
Zr541      Zr  0.13769973  0.05116854  0.22806408     2.26400
Zr542      Zr  0.21944925  0.08103173  0.19100122     2.06300
Zr543      Zr  0.11725190  0.08541535  0.14608937     2.10000
Zr544      Zr  0.14661958  0.03016282  0.12414722     1.78800
O545        O  0.10764221  0.12450128  0.16597351    -0.93800
O546        O  0.17359952  0.00402127  0.10972201    -0.41600
O547        O  0.11689175  0.04108019  0.16544969    -0.78200
O548        O  0.16642940  0.03870372  0.18633166    -0.96900
O549        O  0.19052415  0.09285659  0.23254526    -0.90200
O550        O  0.13681217  0.09483267  0.20899343    -0.93100
C551        C  0.17711607  0.06056521  0.03984278     1.00700
C552        C  0.15086540  0.12878801  0.07072287     1.13600
C553        C  0.27542598  0.13104017  0.12909210     1.04400
O554        O  0.24030051  0.04962638  0.17512321    -0.95200
O555        O  0.21152975  0.04646886  0.24026292    -0.91000
O556        O  0.16106819  0.02522353  0.25843034    -0.84100
C557        C  0.18784289  0.02756336  0.25915283     1.11000
O558        O  0.22093824  0.18761638  0.18895039    -0.97200
Zr559      Zr  0.18999511  0.13629900  0.21281909     1.88900
O560        O  0.13928753  0.08013989  0.28288884    -0.73800
O561        O  0.25912696  0.10978831  0.23869659    -0.53100
O562        O  0.23949508  0.16651147  0.24662663    -0.97800
O563        O  0.16522038  0.16510151  0.22371853    -0.55000
O564        O  0.17674242  0.12990645  0.27736383    -0.74400
C565        C  0.15572741  0.10745138  0.29557901     0.98000
O566        O  0.10996845  0.01282446  0.27526719    -0.63200
O567        O  0.06729127  0.06161430  0.11273045    -0.58000
O568        O  0.08050045  0.02174855  0.21985662    -0.94700
O569        O  0.06969526  0.04808630  0.17874241    -0.93100
O570        O  0.09616755  0.00165484  0.09196097    -0.93400
O571        O  0.12400480  0.47598919  0.14481065    -0.92200
C572        C  0.06132431  0.02683010  0.20262041     1.16800
H573        H  0.13892306  0.07083086  0.08044951     0.32800
H574        H  0.16511510  0.02010861  0.19278911     0.43600
H575        H  0.12339051  0.09811001  0.22456237     0.37100
H576        H  0.24200178  0.14340510  0.17459599     0.33600
H577        H  0.19289981  0.01919953  0.09700167     0.25400
H578        H  0.27493993  0.10422057  0.23533965     0.31400
H579        H  0.23524277  0.17709186  0.26631514     0.37300
H580        H  0.09009870  0.01660588  0.08730788     0.31700
H581        H  0.06464554  0.07847854  0.10557546     0.30600
H582        H  0.10805424  0.13490355  0.14288981     0.32300
H583        H  0.17965953  0.18160056  0.24102163     0.31300
H584        H  0.11175081  0.47534717  0.16641535     0.35200
H585        H  0.09481095  0.01715498  0.28626639     0.28000
H586        H  0.24479490  0.15614593  0.05775632     0.32200
H587        H  0.21493813  0.18578056  0.16241416     0.35100
H588        H  0.07079654  0.05415554  0.08916185     0.27700
H589        H  0.09704961  0.99330513  0.26179105     0.40500
H590        H  0.25895815  0.05704684  0.19144335     0.30600
H591        H  0.18105522  0.00124835  0.13399044     0.38200
H592        H  0.14659721  0.15182689  0.23873010     0.30100
H593        H  0.26965199  0.13111035  0.23067385     0.30100
H594        H  0.24601144  0.17659890  0.09096386     0.30400
C595        C  0.11274301  0.10299441  0.37994685     0.79600
N596        N  0.12015172  0.09581716  0.34709021    -0.78700
C597        C  0.14910636  0.11390002  0.33289312     0.82000
N598        N  0.17062748  0.13954462  0.35164796    -0.78700
C599        C  0.16316492  0.14680111  0.38450470     0.82100
N600        N  0.13421239  0.12854430  0.39844058    -0.80400
C601        C  0.19100309  0.00507383  0.27961274     0.79600
N602        N  0.18433784  0.97923030  0.26171950    -0.78700
C603        C  0.18947779  0.46028191  0.28057195     0.82000
N604        N  0.20057430  0.46551816  0.31583691    -0.78700
C605        C  0.20711311  0.98996239  0.33227921     0.82100
N606        N  0.20219724  0.01040087  0.31513727    -0.80400
C607        C  0.15607406  0.13624543  0.03069092     0.79600
N608        N  0.18459951  0.14413560  0.01742017    -0.78700
C609        C  0.19156016  0.15072028  0.98122592     0.82000
N610        N  0.17020822  0.15049839  0.95847671    -0.78700
C611        C  0.14198694  0.14342829  0.97071733     0.82100
N612        N  0.13442857  0.13619899  0.00720458    -0.80400
Zr613      Zr  0.05002237  0.41953172  0.77421943     2.17500
O614        O  0.00525613  0.40492325  0.73360802    -0.52000
O615        O  0.07906124  0.43960720  0.71752310    -0.75200
O616        O  0.02983252  0.45356042  0.77484296    -0.81900
O617        O  0.05534613  0.35159804  0.74784612    -0.83700
O618        O  0.05808378  0.49017053  0.81815438    -0.79300
O619        O  0.02256531  0.36769002  0.75189130    -0.91000
O620        O  0.13041233  0.45548723  0.72560133    -0.76900
O621        O  0.09725483  0.46463629  0.79295062    -0.86400
O622        O  0.09087163  0.40896765  0.77207446    -0.86100
O623        O  0.03966306  0.42909125  0.83570705    -0.72900
O624        O  0.03402892  0.37677070  0.81392489    -0.85000
Zr625      Zr  0.11310235  0.42224371  0.89442994     2.26400
Zr626      Zr  0.08749574  0.47386170  0.85473996     2.06300
Zr627      Zr  0.07563524  0.36684535  0.81196384     2.10000
Zr628      Zr  0.13748789  0.45341204  0.79174195     1.78800
O629        O  0.03258410  0.31557026  0.82427906    -0.93800
O630        O  0.16701255  0.50732797  0.77799320    -0.41600
O631        O  0.12326335  0.41198800  0.83272717    -0.78200
O632        O  0.12913839  0.46419492  0.85318049    -0.96900
O633        O  0.07252521  0.43281315  0.89672247    -0.90200
O634        O  0.06634469  0.37683960  0.87384744    -0.93100
C635        C  0.10675289  0.44975899  0.70546011     1.00700
C636        C  0.03590168  0.35723543  0.73260711     1.13600
C637        C  0.03722714  0.47817246  0.79215770     1.04400
O638        O  0.12373518  0.02979349  0.83256060    -0.95200
O639        O  0.12464262  0.50178945  0.90425200    -0.91000
O640        O  0.14141463  0.47189252  0.92695470    -0.84100
C641        C  0.14183395  0.49688874  0.92578752     1.11000
O642        O  0.47586501  0.37224653  0.85128117    -0.97200
Zr643      Zr  0.02591534  0.38772137  0.87586161     1.88900
O644        O  0.08135578  0.39178370  0.94622063    -0.73800
O645        O  0.05861032  0.48467895  0.89919525    -0.53100
O646        O  0.00314066  0.40891244  0.91536319    -0.97800
O647        O  0.99008615  0.33298913  0.87781455    -0.55000
O648        O  0.02964920  0.37389499  0.93837308    -0.74400
C649        C  0.05284070  0.37691791  0.95700625     0.98000
O650        O  0.15090749  0.43125462  0.94359700    -0.63200
O651        O  0.10237392  0.34609684  0.77923035    -0.58000
O652        O  0.13929041  0.39410247  0.88568528    -0.94700
O653        O  0.10617845  0.35276729  0.85049476    -0.93100
O654        O  0.16665888  0.43365344  0.76298059    -0.93400
O655        O  0.19144427  0.47859600  0.81432791    -0.92200
C656        C  0.13007203  0.36768070  0.87230688     1.16800
H657        H  0.09408664  0.40383063  0.74756101     0.32800
H658        H  0.14892204  0.48182083  0.86057192     0.43600
H659        H  0.06153844  0.35964984  0.88891380     0.37100
H660        H  0.02244080  0.43223399  0.83643329     0.33600
H661        H  0.15632183  0.01529549  0.76425932     0.25400
H662        H  0.06141230  0.47706509  0.92309049     0.31400
H663        H  0.48471720  0.39283950  0.92251525     0.37300
H664        H  0.15481132  0.41183436  0.76893866     0.31700
H665        H  0.08569991  0.32524118  0.77191919     0.30600
H666        H  0.01445591  0.31363864  0.81059151     0.32300
H667        H  0.47886507  0.33232912  0.89653849     0.31300
H668        H  0.19068866  0.46651744  0.83586637     0.35200
H669        H  0.14423072  0.41108925  0.95374044     0.28000
H670        H  0.01121689  0.42269630  0.71791688     0.32200
H671        H  0.47657012  0.36797259  0.82468815     0.35100
H672        H  0.10933007  0.35729410  0.75567282     0.27700
H673        H  0.17093183  0.43796071  0.93113383     0.40500
H674        H  0.11525864  0.04051400  0.84587903     0.30600
H675        H  0.15206605  0.51089966  0.76447441     0.38200
H676        H  0.00311540  0.32497701  0.88604640     0.30100
H677        H  0.07101891  0.50700037  0.90213652     0.30100
H678        H  0.98830371  0.40265076  0.74956956     0.30400
C679        C  0.01958537  0.37650074  0.64036550     0.79600
N680        N  0.02272051  0.35771484  0.61782453    -0.78700
C681        C  0.03013219  0.33811157  0.63131783     0.82000
N682        N  0.03397550  0.33664878  0.66876438    -0.78700
C683        C  0.03143049  0.35613160  0.69185493     0.82100
N684        N  0.02388671  0.37548972  0.67730023    -0.80400
C685        C  0.09132382  0.46241191  0.60980287     0.79600
N686        N  0.11752357  0.46780449  0.59261351    -0.78700
C687        C  0.14006865  0.46620261  0.61139433     0.82000
N688        N  0.13721350  0.46039908  0.64830688    -0.78700
C689        C  0.11091214  0.45495256  0.66566097     0.82100
N690        N  0.08823758  0.45565294  0.64622317    -0.80400
C691        C  0.06363270  0.34041212  0.03762559     0.79600
N692        N  0.06806617  0.35493544  0.00524344    -0.78700
C693        C  0.04668024  0.36105042  0.99225993     0.82000
N694        N  0.02005060  0.35192898  0.01160866    -0.78700
C695        C  0.51512038  0.34100012  0.04260857     0.82100
N696        N  0.53711960  0.33604245  0.05657679    -0.80400
C697        C  0.21122267  0.07533920  0.94709853     0.79600
N698        N  0.20554366  0.07856967  0.98270241    -0.78700
C699        C  0.18071974  0.05597369  0.00054099     0.82000
N700        N  0.16069571  0.02941160  0.98227134    -0.78700
C701        C  0.16585591  0.02606295  0.94611096     0.82100
N702        N  0.19102579  0.04904152  0.92883804    -0.80400
C703        C  0.48383056  0.01315662  0.22327115     0.79600
N704        N  0.01368531  0.02470806  0.21794155    -0.78700
C705        C  0.02761898  0.00897252  0.21217145     0.82000
N706        N  0.00895512  0.47760960  0.20901821    -0.78700
C707        C  0.47678256  0.46177645  0.21107633     0.82100
N708        N  0.46336617  0.47843063  0.21644077    -0.80400
C709        C  0.30819814  0.17931286  0.55284294     0.79600
N710        N  0.29322443  0.14837677  0.55118348    -0.78700
C711        C  0.30976969  0.13451195  0.55323936     0.82000
N712        N  0.34132485  0.15170986  0.55532242    -0.78700
C713        C  0.35694443  0.18230180  0.55692103     0.82100
N714        N  0.34031671  0.19627735  0.55514338    -0.80400
C715        C  0.18108863  0.31916529  0.44326845     0.79600
N716        N  0.14896594  0.30176714  0.44372363    -0.78700
C717        C  0.13197392  0.31531527  0.44576021     0.82000
N718        N  0.14723523  0.34585780  0.44826766    -0.78700
C719        C  0.17873504  0.36339463  0.44757627     0.82100
N720        N  0.19570161  0.34999065  0.44587842    -0.80400
C721        C  0.02006640  0.49334983  0.78312124     0.79600
N722        N  0.49132650  0.47983770  0.77894095    -0.78700
C723        C  0.47438293  0.49324795  0.77664207     0.82000
N724        N  0.48848376  0.02199514  0.77617308    -0.78700
C725        C  0.01959382  0.03896929  0.78074637     0.82100
N726        N  0.03585362  0.02496077  0.78303141    -0.80400
C727        C  0.14832729  0.35362753  0.88154821     0.79600
N728        N  0.18010855  0.37053169  0.88291201    -0.78700
C729        C  0.19726688  0.35734749  0.88694983     0.82000
N730        N  0.18189861  0.32637790  0.88942873    -0.78700
C731        C  0.14975981  0.30913124  0.88845366     0.82100
N732        N  0.13354999  0.32307924  0.88354550    -0.80400
C733        C  0.35422607  0.14537013  0.11438822     0.79600
N734        N  0.32288447  0.13140663  0.11823012    -0.78700
C735        C  0.30865910  0.14723693  0.11887476     0.82000
N736        N  0.32636483  0.17802496  0.11668135    -0.78700
C737        C  0.35810875  0.19257389  0.11308498     0.82100
N738        N  0.37196426  0.17608464  0.11275710    -0.80400
C739        C  0.06562928  0.07063585  0.57721906    -0.23100
C740        C  0.08224156  0.05626534  0.57158867     0.08900
C741        C  0.11525956  0.07303480  0.57565706     0.09300
C742        C  0.13029720  0.10266714  0.58893987    -0.18000
C743        C  0.11325855  0.11553160  0.59976204    -0.28400
C744        C  0.08075053  0.10013698  0.59196419     0.17600
C745        C  0.06541033  0.02296126  0.57239754     0.11600
C746        C  0.13468670  0.05910109  0.56974710    -0.12800
H747        H  0.15535521  0.11489824  0.59411723     0.11900
C748        C  0.06134687  0.11374024  0.59940125    -0.23600
H749        H  0.04040870  0.05784317  0.57339447     0.07500
C750        C  0.05467846  0.00849133  0.60683552     0.03800
C751        C  0.05447528  0.98199170  0.61330604    -0.20800
C752        C  0.06973014  0.97314901  0.58871459    -0.13100
C753        C  0.07373917  0.98340745  0.55170218     0.12500
C754        C  0.07049386  0.00792539  0.54371267    -0.23600
C755        C  0.04933696  0.02369484  0.63915870    -0.06600
H756        H  0.05078649  0.47172335  0.64555985     0.14100
C757        C  0.08423165  0.97127563  0.52102123    -0.16800
H758        H  0.07768354  0.01853125  0.51692380     0.08400
H759        H  0.04336252  0.09999600  0.62025703     0.06300
H760        H  0.04941399  0.11373760  0.57333871     0.07500
H761        H  0.07549726  0.13746354  0.60958305     0.06500
H762        H  0.13253568  0.05157843  0.54049363     0.01400
H763        H  0.12691237  0.03957620  0.58845425     0.01900
H764        H  0.15993641  0.07544547  0.57568191     0.05400
H765        H  0.04117685  0.00910134  0.66400601     0.04400
H766        H  0.03149401  0.02918348  0.63189031    -0.01400
H767        H  0.07152131  0.04498066  0.64685715     0.00100
H768        H  0.08487868  0.95117297  0.52933249     0.03700
H769        H  0.10787588  0.98919624  0.51184316     0.05700
H770        H  0.06757875  0.96426755  0.49720130     0.06500
C771        C  0.09069047  0.31667793  0.23880968    -0.23100
C772        C  0.10284114  0.34707189  0.22938811     0.08900
C773        C  0.08205624  0.35723412  0.22380697     0.09300
C774        C  0.05128496  0.33895243  0.23506852    -0.18000
C775        C  0.04065561  0.31093189  0.25156449    -0.28400
C776        C  0.05966301  0.29848711  0.25073774     0.17600
C777        C  0.13550197  0.37007849  0.23994107     0.11600
C778        C  0.09294399  0.38895421  0.21118512    -0.12800
H779        H  0.03670965  0.34845044  0.23531110     0.11900
C780        C  0.04858067  0.26713508  0.26432474    -0.23600
H781        H  0.10646046  0.30857474  0.24190327     0.07500
C782        C  0.14271196  0.37615815  0.27815933     0.03800
C783        C  0.16398790  0.40573754  0.28969776    -0.20800
C784        C  0.17682327  0.42970172  0.26450126    -0.13100
C785        C  0.17339023  0.42295481  0.22603547     0.12500
C786        C  0.15390512  0.39267619  0.21432017    -0.23600
C787        C  0.12483721  0.35282314  0.30756109    -0.06600
H788        H  0.16747480  0.41042848  0.31920281     0.14100
C789        C  0.18808447  0.44675048  0.19662551    -0.16800
H790        H  0.14917240  0.38767499  0.18498859     0.08400
H791        H  0.06220948  0.26860625  0.28950735     0.06300
H792        H  0.05213301  0.25423157  0.24247184     0.07500
H793        H  0.02332101  0.25425827  0.27089559     0.06500
H794        H  0.10373644  0.39294595  0.18354720     0.01400
H795        H  0.10986495  0.40590475  0.23156009     0.01900
H796        H  0.07346789  0.39283630  0.20851366     0.05400
H797        H  0.13377005  0.36184119  0.33593102     0.04400
H798        H  0.12703484  0.33292973  0.30340482    -0.01400
H799        H  0.09978438  0.34559480  0.30651386     0.00100
H800        H  0.20479970  0.46962626  0.20800709     0.03700
H801        H  0.20214349  0.93983043  0.17592986     0.05700
H802        H  0.16948518  0.44740766  0.18063858     0.06500
C803        C  0.30513016  0.24417369  0.90301320    -0.23100
C804        C  0.31207481  0.22510948  0.92220547     0.08900
C805        C  0.34280320  0.23680177  0.93535777     0.09300
C806        C  0.36296840  0.26839739  0.93861895    -0.18000
C807        C  0.35281493  0.28790711  0.92779990    -0.28400
C808        C  0.32477947  0.27565052  0.90626501     0.17600
C809        C  0.28508132  0.19946914  0.94081753     0.11600
C810        C  0.35302903  0.21582508  0.94828840    -0.12800
H811        H  0.38537454  0.27762278  0.95270064     0.11900
C812        C  0.31305593  0.29468371  0.89037192    -0.23600
H813        H  0.28185788  0.23466367  0.89109502     0.07500
C814        C  0.27845429  0.20364111  0.97766219     0.03800
C815        C  0.24798841  0.18577151  0.99050115    -0.20800
C816        C  0.22377407  0.16383047  0.96794956    -0.13100
C817        C  0.23052096  0.15856262  0.93169408     0.12500
C818        C  0.26132669  0.17611496  0.91885647    -0.23600
C819        C  0.30234858  0.22905040  0.00256730    -0.06600
H820        H  0.24245869  0.19116383  0.01713321     0.14100
C821        C  0.20522886  0.13583930  0.90562662    -0.16800
H822        H  0.26627527  0.17360466  0.89039084     0.08400
H823        H  0.30760631  0.30558612  0.91299860     0.06300
H824        H  0.29119749  0.28085310  0.87372863     0.07500
H825        H  0.33083671  0.31205995  0.87177108     0.06500
H826        H  0.35181854  0.20156615  0.92459160     0.01400
H827        H  0.33757477  0.20065300  0.97030283     0.01900
H828        H  0.37744733  0.22862036  0.95927597     0.05400
H829        H  0.29247418  0.22939010  0.02977269     0.04400
H830        H  0.31076720  0.25126703  0.98947208    -0.01400
H831        H  0.32231683  0.22628600  0.00833255     0.00100
H832        H  0.21516422  0.13289064  0.87983170     0.03700
H833        H  0.18934761  0.14359373  0.89735891     0.05700
H834        H  0.19155281  0.11349789  0.91916936     0.06500
C835        C  0.30577123  0.10280486  0.75078528    -0.23100
C836        C  0.33270208  0.10922228  0.77083132     0.08900
C837        C  0.33113215  0.08661442  0.79376560     0.09300
C838        C  0.30666334  0.05661359  0.78781993    -0.18000
C839        C  0.28621568  0.04949325  0.75725440    -0.28400
C840        C  0.28216774  0.07257758  0.74349657     0.17600
C841        C  0.36344402  0.13237818  0.75605868     0.11600
C842        C  0.35716468  0.09345063  0.82067717    -0.12800
H843        H  0.30762391  0.03881054  0.80199426     0.11900
C844        C  0.25530115  0.06595570  0.71821858    -0.23600
H845        H  0.30573750  0.12067969  0.73553086     0.07500
C846        C  0.37211249  0.12782361  0.72054679     0.03800
C847        C  0.40271866  0.14683808  0.70912812    -0.20800
C848        C  0.42539227  0.16957358  0.73239612    -0.13100
C849        C  0.41706398  0.17456808  0.76770690     0.12500
C850        C  0.38589373  0.15599668  0.77902478    -0.23600
C851        C  0.34998984  0.10182929  0.69510189    -0.06600
H852        H  0.40944373  0.14295734  0.68223431     0.14100
C853        C  0.44021057  0.19917718  0.79373808    -0.16800
H854        H  0.37934114  0.15925645  0.80631835     0.08400
H855        H  0.26415496  0.07550604  0.69041832     0.06300
H856        H  0.23809986  0.04124873  0.71537100     0.07500
H857        H  0.24291492  0.07646420  0.72989889     0.06500
H858        H  0.36086108  0.11166055  0.83999593     0.01400
H859        H  0.37912598  0.10087342  0.80563526     0.01900
H860        H  0.35159436  0.07343643  0.83738737     0.05400
H861        H  0.36163198  0.10107104  0.66955479     0.04400
H862        H  0.33025644  0.10415762  0.68612861    -0.01400
H863        H  0.34109930  0.08001413  0.70944219     0.00100
H864        H  0.43193891  0.21459465  0.80047121     0.03700
H865        H  0.46385235  0.21305322  0.78184609     0.05700
H866        H  0.44217691  0.18892237  0.81972787     0.06500
C867        C  0.42852413  0.40995165  0.56070489    -0.23100
C868        C  0.45048662  0.43035014  0.58671779     0.08900
C869        C  0.44400271  0.44995739  0.60587132     0.09300
C870        C  0.41276161  0.44184647  0.60839165    -0.18000
C871        C  0.38902845  0.41543863  0.59034991    -0.28400
C872        C  0.39781412  0.40342458  0.56096870     0.17600
C873        C  0.47239704  0.42247407  0.60261373     0.11600
C874        C  0.46958855  0.47757116  0.62580178    -0.12800
H875        H  0.40672273  0.45361067  0.62811328     0.11900
C876        C  0.37524328  0.38209855  0.53172697    -0.23600
H877        H  0.43420203  0.39661243  0.54318540     0.07500
C878        C  0.46624480  0.40835798  0.63764883     0.03800
C879        C  0.48342534  0.39586569  0.64929728    -0.20800
C880        C  0.50581659  0.39583621  0.62683429    -0.13100
C881        C  0.51035011  0.40789870  0.59067327     0.12500
C882        C  0.49441918  0.42212718  0.57960570    -0.23600
C883        C  0.43961011  0.40357732  0.66168816    -0.06600
H884        H  0.47735205  0.38366776  0.67507510     0.14100
C885        C  0.53017072  0.40429578  0.56273250    -0.16800
H886        H  0.49757220  0.43126529  0.55195903     0.08400
H887        H  0.38541838  0.39025823  0.50395115     0.06300
H888        H  0.35275545  0.38118302  0.53183155     0.07500
H889        H  0.37093735  0.35906295  0.53570835     0.06500
H890        H  0.48642919  0.49294505  0.60493150     0.01400
H891        H  0.48205860  0.47154567  0.64609827     0.01900
H892        H  0.46035746  0.48986044  0.64068786     0.05400
H893        H  0.43714380  0.39019069  0.68672608     0.04400
H894        H  0.41716802  0.39097612  0.64584926    -0.01400
H895        H  0.44354685  0.42549233  0.67159942     0.00100
H896        H  0.51917019  0.38004094  0.55508816     0.03700
H897        H  0.05228312  0.40861712  0.57270773     0.05700
H898        H  0.03017909  0.41189068  0.53541922     0.06500
C899        C  0.29205666  0.55999233  0.89672355    -0.23100
C900        C  0.31241393  0.09280485  0.90367541     0.08900
C901        C  0.34365341  0.10457671  0.91546339     0.09300
C902        C  0.35191513  0.08497949  0.93059736    -0.18000
C903        C  0.32964491  0.05400005  0.93468475    -0.28400
C904        C  0.30046288  0.54160296  0.91477236     0.17600
C905        C  0.29868105  0.11197327  0.90218947     0.11600
C906        C  0.36829718  0.13783224  0.91402424    -0.12800
H907        H  0.37562626  0.09422005  0.94089341     0.11900
C908        C  0.27566647  0.50862558  0.92016200    -0.23600
H909        H  0.26785411  0.54987861  0.88800783     0.07500
C910        C  0.27364678  0.10375957  0.87729378     0.03800
C911        C  0.24458531  0.09562652  0.89177459    -0.20800
C912        C  0.24153094  0.09765126  0.93015787    -0.13100
C913        C  0.26918985  0.11616917  0.95175692     0.12500
C914        C  0.29799726  0.12408158  0.93662455    -0.23600
C915        C  0.27658162  0.09897534  0.83697075    -0.06600
H916        H  0.22393210  0.08440542  0.87397193     0.14100
C917        C  0.26894384  0.12462841  0.99168476    -0.16800
H918        H  0.31834509  0.13354210  0.95486771     0.08400
H919        H  0.28248419  0.49390941  0.90655019     0.06300
H920        H  0.25271153  0.50264973  0.90795549     0.07500
H921        H  0.27234115  0.50355646  0.95018307     0.06500
H922        H  0.37650052  0.14680723  0.94256817     0.01400
H923        H  0.35950007  0.15109746  0.90058648     0.01900
H924        H  0.38849960  0.14116591  0.89790224     0.05400
H925        H  0.25488851  0.09264346  0.82111226     0.04400
H926        H  0.27984743  0.57702220  0.82570841    -0.01400
H927        H  0.29617166  0.12026192  0.82536869     0.00100
H928        H  0.29284010  0.14171579  0.00209006     0.03700
H929        H  0.25984529  0.10443937  0.00950127     0.05700
H930        H  0.25441003  0.13465665  0.99452985     0.06500
C931        C  0.11310545  0.32002393  0.09497617    -0.23100
C932        C  0.11233388  0.29794505  0.07172286     0.08900
C933        C  0.09930155  0.29350714  0.03532057     0.09300
C934        C  0.08680139  0.31060854  0.02392804    -0.18000
C935        C  0.08465547  0.33013510  0.04852068    -0.28400
C936        C  0.09905159  0.33600211  0.08386336     0.17600
C937        C  0.11712885  0.27472152  0.08846254     0.11600
C938        C  0.09464163  0.26835919  0.00966154    -0.12800
H939        H  0.07571021  0.30644150  0.99678190     0.11900
C940        C  0.09927458  0.35876735  0.10984993    -0.23600
H941        H  0.12269163  0.32313858  0.12283102     0.07500
C942        C  0.13543435  0.26540054  0.07078192     0.03800
C943        C  0.12323581  0.23421736  0.06722274    -0.20800
C944        C  0.09421909  0.21336855  0.08296532    -0.13100
C945        C  0.08304163  0.22384082  0.11147123     0.12500
C946        C  0.59618186  0.26367404  0.11562301    -0.23600
C947        C  0.16594772  0.28812769  0.05323894    -0.06600
H948        H  0.13379005  0.22630045  0.04796876     0.14100
C949        C  0.55550628  0.21171203  0.13585954    -0.16800
H950        H  0.58423238  0.27187800  0.13205442     0.08400
H951        H  0.11125584  0.38136668  0.09669285     0.06300
H952        H  0.60742894  0.36434011  0.14078104     0.07500
H953        H  0.07500932  0.35192965  0.11657424     0.06500
H954        H  0.08019494  0.24624331  0.02342679     0.01400
H955        H  0.11730113  0.27158097  0.00153224     0.01900
H956        H  0.08220346  0.26736516  0.98357105     0.05400
H957        H  0.17636287  0.27682674  0.03857654     0.04400
H958        H  0.18268709  0.30311651  0.07520679    -0.01400
H959        H  0.16285756  0.30245097  0.03319308     0.00100
H960        H  0.55240247  0.22446277  0.15836315     0.03700
H961        H  0.55927541  0.19465459  0.14909779     0.05700
H962        H  0.53359044  0.20031853  0.11899731     0.06500
C963        C  0.27278566  0.39298305  0.26906421    -0.23100
C964        C  0.24008167  0.37834319  0.27023083     0.08900
C965        C  0.22155067  0.34651061  0.27136094     0.09300
C966        C  0.23645176  0.33035416  0.27682771    -0.18000
C967        C  0.26928132  0.34549980  0.27868220    -0.28400
C968        C  0.28766388  0.37700368  0.27279645     0.17600
C969        C  0.22802254  0.39829468  0.27668590     0.11600
C970        C  0.18658967  0.32981947  0.26598877    -0.12800
H971        H  0.22256100  0.30600171  0.28012985     0.11900
C972        C  0.32300620  0.39441195  0.27318469    -0.23600
H973        H  0.28693740  0.41749293  0.26762637     0.07500
C974        C  0.22537968  0.40499941  0.31389635     0.03800
C975        C  0.23835611  0.43521858  0.32457021    -0.20800
C976        C  0.25506641  0.45869733  0.29942639    -0.13100
C977        C  0.25124766  0.45126345  0.26090037     0.12500
C978        C  0.23633583  0.42072482  0.25007589    -0.23600
C979        C  0.21240810  0.38104662  0.34333545    -0.06600
H980        H  0.24141177  0.94158100  0.35298597     0.14100
C981        C  0.26447105  0.47478303  0.23089183    -0.16800
H982        H  0.23690854  0.41512477  0.22125803     0.08400
H983        H  0.33183106  0.39093538  0.29983415     0.06300
H984        H  0.33331484  0.41913770  0.26999184     0.07500
H985        H  0.33135616  0.38674179  0.24983221     0.06500
H986        H  0.18098976  0.33522711  0.23837170     0.01400
H987        H  0.17580395  0.33644942  0.28733794     0.01900
H988        H  0.17579561  0.30492078  0.26741014     0.05400
H989        H  0.21427383  0.39088383  0.37124955     0.04400
H990        H  0.22532266  0.36919636  0.34431545    -0.01400
H991        H  0.18723537  0.36458498  0.33787089     0.00100
H992        H  0.29025091  0.48587361  0.22972894     0.03700
H993        H  0.25805758  0.49187081  0.23581445     0.05700
H994        H  0.25524459  0.46448019  0.20309177     0.06500
C995        C  0.96287292  0.03496259  0.41368072    -0.23100
C996        C  0.98934259  0.05346903  0.43611584     0.08900
C997        C  0.98918561  0.07530363  0.45933201     0.09300
C998        C  0.96744455  0.08369874  0.45188700    -0.18000
C999        C  0.44877638  0.07578506  0.42067175    -0.28400
C1000       C  0.44195508  0.04787515  0.40540908     0.17600
C1001       C  0.01964749  0.06162311  0.42011488     0.11600
C1002       C  0.01506002  0.09331395  0.48741105    -0.12800
H1003       H  0.97024343  0.10344483  0.46591615     0.11900
C1004       C  0.41629039  0.03083787  0.37697024    -0.23600
H1005       H  0.96182229  0.01691628  0.39735553     0.07500
C1006       C  0.04001692  0.05358909  0.43558347     0.03800
C1007       C  0.07033505  0.06659016  0.42120772    -0.20800
C1008       C  0.08007452  0.08698104  0.39161523    -0.13100
C1009       C  0.05904138  0.09388019  0.37527189     0.12500
C1010       C  0.02915066  0.08099204  0.38962490    -0.23600
C1011       C  0.02978850  0.03151404  0.46688233    -0.06600
H1012       H  0.08664145  0.06136398  0.43349233     0.14100
C1013       C  0.06757519  0.11575673  0.34374016    -0.16800
H1014       H  0.01339106  0.08717153  0.37784016     0.08400
H1015       H  0.40094365  0.00694109  0.38559772     0.06300
H1016       H  0.42675795  0.03143044  0.34992872     0.07500
H1017       H  0.40146611  0.04064487  0.37381328     0.06500
H1018       H  0.03815855  0.10515080  0.47378783     0.01400
H1019       H  0.01472688  0.07799561  0.50888923     0.01900
H1020       H  0.01229465  0.11070709  0.50160439     0.05400
H1021       H  0.04824739  0.02697614  0.47465565     0.04400
H1022       H  0.00853023  0.00971978  0.45832367    -0.01400
H1023       H  0.02449528  0.04057801  0.49160985     0.00100
H1024       H  0.05168515  0.10384700  0.31969168     0.03700
H1025       H  0.09193375  0.12580316  0.33437118     0.05700
H1026       H  0.06475702  0.13463224  0.35253723     0.06500
Zr1027     Zr  0.41743508  0.55218892  0.23597671     2.17500
O1028       O  0.39399183  0.50693474  0.27407432    -0.52000
O1029       O  0.44796391  0.58318193  0.28887690    -0.75200
O1030       O  0.44678082  0.52611734  0.23492382    -0.81900
O1031       O  0.34776954  0.56169118  0.25275259    -0.83700
O1032       O  0.47919623  0.54544220  0.18567980    -0.79300
O1033       O  0.37541972  0.54242171  0.27752352    -0.91000
O1034       O  0.46100598  0.63143456  0.27816108    -0.76900
O1035       O  0.46525513  0.59268403  0.21206312    -0.86400
O1036       O  0.41254118  0.59525510  0.23392312    -0.86100
O1037       O  0.41989800  0.53549289  0.17476583    -0.72900
O1038       O  0.37219619  0.53887839  0.19790122    -0.85000
Zr1039     Zr  0.41959983  0.60664957  0.10808212     2.26400
Zr1040     Zr  0.46721779  0.57698650  0.15013958     2.06300
Zr1041     Zr  0.36979867  0.58351709  0.19401009     2.10000
Zr1042     Zr  0.45998455  0.63557669  0.21094528     1.78800
O1043       O  0.31311464  0.55134684  0.18686256    -0.93800
O1044       O  0.51533908  0.65621575  0.22401649    -0.41600
O1045       O  0.41729956  0.62438872  0.16920261    -0.78200
O1046       O  0.46388045  0.62117616  0.14905199    -0.96900
O1047       O  0.42325289  0.56290860  0.11037612    -0.90200
O1048       O  0.37169890  0.56671249  0.13302182    -0.93100
C1049       C  0.45615077  0.60992406  0.29984414     1.00700
C1050       C  0.35342975  0.54796255  0.27794762     1.13600
C1051       C  0.46820894  0.52808784  0.21370013     1.04400
O1052       O  0.02630551  0.61290978  0.16982229    -0.95200
O1053       O  0.49596379  0.60789302  0.09824393    -0.91000
O1054       O  0.46852146  0.62739825  0.07397702    -0.84100
C1055       C  0.49261282  0.62498597  0.07584147     1.11000
O1056       O  0.35249929  0.97350203  0.16392131    -0.97200
Zr1057     Zr  0.37590597  0.52335164  0.13691819     1.88900
O1058       O  0.38792288  0.57274460  0.05595789    -0.73800
O1059       O  0.47294065  0.54433514  0.10665674    -0.53100
O1060       O  0.38752263  0.48803310  0.10833043    -0.97800
O1061       O  0.31904792  0.49802750  0.13302007    -0.55000
O1062       O  0.36788769  0.52369385  0.07179167    -0.74400
C1063       C  0.37304029  0.54409666  0.04850343     0.98000
O1064       O  0.43302093  0.64358763  0.05902349    -0.63200
O1065       O  0.36644761  0.62030481  0.23239461    -0.58000
O1066       O  0.39395944  0.63570275  0.11251712    -0.94700
O1067       O  0.35544870  0.61124901  0.15438495    -0.93100
O1068       O  0.44413014  0.66906097  0.23541203    -0.93400
O1069       O  0.49431575  0.68796227  0.19194207    -0.92200
C1070       C  0.36947819  0.63103332  0.12928854     1.16800
H1071       H  0.40794377  0.60020908  0.25781057     0.32800
H1072       H  0.48282075  0.63858147  0.14008530     0.43600
H1073       H  0.35392945  0.56297761  0.11810783     0.37100
H1074       H  0.42016062  0.51711144  0.17506623     0.33600
H1075       H  0.51581705  0.64329922  0.24374136     0.25400
H1076       H  0.46964614  0.55019452  0.08176729     0.31400
H1077       H  0.41062261  0.49930151  0.10703507     0.37300
H1078       H  0.43550120  0.67409494  0.21380963     0.31700
H1079       H  0.37665820  0.63930591  0.21812871     0.30600
H1080       H  0.30844084  0.55413471  0.16101018     0.32300
H1081       H  0.31902674  0.00873071  0.10982805     0.31300
H1082       H  0.50358211  0.69970220  0.21519627     0.35200
H1083       H  0.41296692  0.63889945  0.04752268     0.28000
H1084       H  0.41072612  0.50997421  0.29155511     0.32200
H1085       H  0.36161748  0.97705203  0.18924777     0.35100
H1086       H  0.34395585  0.61335941  0.23195103     0.27700
H1087       H  0.44162462  0.66345136  0.07162139     0.40500
H1088       H  0.03189052  0.63374620  0.16398010     0.30600
H1089       H  0.52305190  0.65116269  0.20178214     0.38200
H1090       H  0.31276840  0.50059953  0.15796742     0.30100
H1091       H  0.49547670  0.55147922  0.10773741     0.30100
H1092       H  0.39039835  0.49020897  0.25739423     0.30400
C1093       C  0.44812546  0.59369955  0.39990100     0.79600
N1094       N  0.45102721  0.61921397  0.41396747    -0.78700
C1095       C  0.45709855  0.64261474  0.39169880     0.82000
N1096       N  0.46059844  0.64070472  0.35464667    -0.78700
C1097       C  0.45725769  0.61490191  0.34012236     0.82100
N1098       N  0.45132684  0.59181484  0.36291852    -0.80400
C1099       C  0.27986541  0.48884698  0.31441930     0.79600
N1100       N  0.30271409  0.50800976  0.29187909    -0.78700
C1101       C  0.32923497  0.53245374  0.30493532     0.82000
N1102       N  0.33355446  0.53874177  0.34195679    -0.78700
C1103       C  0.31029131  0.51994514  0.36531139     0.82100
N1104       N  0.28404396  0.49478177  0.35142202    -0.80400
C1105       C  0.07299153  0.69270941  0.06044818     0.79600
N1106       N  0.04745023  0.66941520  0.07624089    -0.78700
C1107       C  0.02304166  0.64821142  0.05526498     0.82000
N1108       N  0.02405555  0.65004126  0.01760695    -0.78700
C1109       C  0.05024581  0.67300072  0.00149840     0.82100
N1110       N  0.07421655  0.69408697  0.02307507    -0.80400
C1111       C  0.33934247  0.53765077  0.95475104     0.79600
N1112       N  0.35319002  0.54922118  0.98828829    -0.78700
C1113       C  0.36033110  0.53293079  0.01099933     0.82000
N1114       N  0.35435135  0.50527900  0.99957321    -0.78700
C1115       C  0.34038900  0.49357169  0.96613285     0.82100
N1116       N  0.33310222  0.50997276  0.94396456    -0.80400
Zr1117     Zr  0.21659881  0.74731082  0.42994589     2.17500
O1118       O  0.18303768  0.73798703  0.37585437    -0.52000
O1119       O  0.25404433  0.77581503  0.38099014    -0.75200
O1120       O  0.19463894  0.78058299  0.42985706    -0.81900
O1121       O  0.20175843  0.66581208  0.42714655    -0.83700
O1122       O  0.22200623  0.81717105  0.47367995    -0.79300
O1123       O  0.18658188  0.69621847  0.40180922    -0.91000
O1124       O  0.30408518  0.79076197  0.39628033    -0.76900
O1125       O  0.26262008  0.79069261  0.45463138    -0.86400
O1126       O  0.25612001  0.73499428  0.43528662    -0.86100
O1127       O  0.20090642  0.75580354  0.48937005    -0.72900
O1128       O  0.19721176  0.70434334  0.47029826    -0.85000
Zr1129     Zr  0.26730012  0.74502737  0.56302808     2.26400
Zr1130     Zr  0.24774164  0.79902061  0.51393638     2.06300
Zr1131     Zr  0.23793123  0.69362530  0.47740324     2.10000
Zr1132     Zr  0.30160397  0.77809284  0.46122830     1.78800
O1133       O  0.20692060  0.63961904  0.49038456    -0.93800
O1134       O  0.33545141  0.83310500  0.46025934    -0.41600
O1135       O  0.28349126  0.73694545  0.50372870    -0.78200
O1136       O  0.28795115  0.78755525  0.52107657    -0.96900
O1137       O  0.22781560  0.75725152  0.55510701    -0.90200
O1138       O  0.22169970  0.70073964  0.53676944    -0.93100
C1139       C  0.28333007  0.78876434  0.37364799     1.00700
C1140       C  0.18549596  0.67096786  0.40437871     1.13600
C1141       C  0.20148215  0.80518176  0.44733939     1.04400
O1142       O  0.28775793  0.85058836  0.49766657    -0.95200
O1143       O  0.27626556  0.82300145  0.57076037    -0.91000
O1144       O  0.29167921  0.79337918  0.59779567    -0.84100
C1145       C  0.29130435  0.81789209  0.59548844     1.11000
O1146       O  0.13759192  0.71184545  0.50061095    -0.97200
Zr1147     Zr  0.18266376  0.71347509  0.52908121     1.88900
O1148       O  0.22745606  0.71418004  0.60919754    -0.73800
O1149       O  0.21660419  0.81295775  0.55012214    -0.53100
O1150       O  0.13696477  0.70062732  0.56585408    -0.97800
O1151       O  0.15460478  0.65825355  0.52921083    -0.55000
O1152       O  0.19779456  0.73130067  0.59185944    -0.74400
C1153       C  0.20241680  0.71453166  0.61269832     0.98000
O1154       O  0.30112688  0.75417477  0.61679768    -0.63200
O1155       O  0.26947705  0.68611633  0.43309119    -0.58000
O1156       O  0.29325006  0.71549510  0.56049740    -0.94700
O1157       O  0.26728007  0.67874489  0.51660695    -0.93100
O1158       O  0.32689029  0.75458787  0.43155638    -0.93400
O1159       O  0.35410479  0.79575485  0.48486565    -0.89800
C1160       C  0.28767041  0.69137589  0.54298657     1.16800
H1161       H  0.26018709  0.72959331  0.41128953     0.32800
H1162       H  0.30693901  0.80494076  0.53123876     0.43600
H1163       H  0.21472587  0.68302245  0.55181789     0.37100
H1164       H  0.18436075  0.75988294  0.48869279     0.33600
H1165       H  0.35259851  0.83726947  0.44336938     0.25400
H1166       H  0.20977658  0.79943233  0.57179632     0.31400
H1167       H  0.12169753  0.67879142  0.56131234     0.37300
H1168       H  0.31648649  0.74746484  0.40698659     0.31700
H1169       H  0.28472364  0.68399707  0.44818269     0.30600
H1170       H  0.21571469  0.63051109  0.47441080     0.32300
H1171       H  0.16751039  0.65276078  0.51488569     0.31300
H1172       H  0.35373104  0.80067345  0.51129295     0.35200
H1173       H  0.29301531  0.73407861  0.62804010     0.28000
H1174       H  0.19229239  0.75773506  0.36329549     0.32200
H1175       H  0.13624750  0.70397862  0.47519715     0.35100
H1176       H  0.25519665  0.66566933  0.42236209     0.27700
H1177       H  0.32177663  0.75999757  0.60677658     0.40500
H1178       H  0.28355220  0.86357558  0.51348212     0.30600
H1179       H  0.32325533  0.83998493  0.44650090     0.38200
H1180       H  0.13603174  0.65171695  0.51304327     0.30100
H1181       H  0.23166346  0.83338307  0.56040829     0.30100
H1182       H  0.16295909  0.73401577  0.38572814     0.30400
Zr1183     Zr  0.35993687  0.95053209  0.76530698     2.17500
O1184       O  0.38310218  0.98058211  0.70987106    -0.52000
O1185       O  0.34897411  0.91467904  0.71507381    -0.75200
O1186       O  0.41842612  0.97631979  0.76464620    -0.81900
O1187       O  0.28105011  0.94643128  0.75683225    -0.83700
O1188       O  0.43166858  0.95483318  0.81018792    -0.79300
O1189       O  0.33209964  0.97421385  0.73970438    -0.91000
O1190       O  0.31614433  0.86565390  0.73104646    -0.76900
O1191       O  0.36408093  0.91109629  0.79266075    -0.86400
O1192       O  0.30781067  0.90744269  0.77127333    -0.86100
O1193       O  0.38595184  0.97069034  0.82437621    -0.72900
O1194       O  0.33187622  0.96561341  0.80424116    -0.85000
Zr1195     Zr  0.30937254  0.90243909  0.89902147     2.26400
Zr1196     Zr  0.38821565  0.93020508  0.85234104     2.06300
Zr1197     Zr  0.28052593  0.92133273  0.81233384     2.10000
Zr1198     Zr  0.31214843  0.86835655  0.79833356     1.78800
O1199       O  0.25305832  0.94795301  0.81980326    -0.93800
O1200       O  0.34224166  0.84456871  0.78933920    -0.41600
O1201       O  0.28428008  0.88186124  0.83974279    -0.78200
O1202       O  0.33634102  0.88632898  0.85857852    -0.96900
O1203       O  0.36138049  0.94555291  0.89143173    -0.90200
O1204       O  0.30514423  0.94207523  0.87102631    -0.93100
C1205       C  0.33247874  0.88624229  0.70731366     1.00700
C1206       C  0.30351789  0.96775963  0.73889056     1.13600
C1207       C  0.43859306  0.97265994  0.78263651     1.04400
O1208       O  0.40788194  0.89662436  0.84641524    -0.95200
O1209       O  0.39042689  0.91100475  0.91264830    -0.91000
O1210       O  0.34038758  0.88591702  0.93325964    -0.84100
C1211       C  0.36888485  0.89235629  0.93427002     1.11000
O1212       O  0.40449425  0.53109831  0.83785540    -0.97200
Zr1213     Zr  0.35728962  0.98455298  0.86278012     1.88900
O1214       O  0.31550641  0.94088978  0.94406829    -0.73800
O1215       O  0.43331192  0.96950168  0.88749954    -0.53100
O1216       O  0.38929700  0.03208450  0.89717377    -0.97800
O1217       O  0.32214250  0.00338973  0.86329351    -0.55000
O1218       O  0.36318811  0.97404863  0.92587671    -0.74400
C1219       C  0.34038424  0.96719650  0.94668831     0.98000
O1220       O  0.28164200  0.86995664  0.95129684    -0.63200
O1221       O  0.23775113  0.88091990  0.77557367    -0.58000
O1222       O  0.25093604  0.87163102  0.89653289    -0.94700
O1223       O  0.23746975  0.89533153  0.85466911    -0.93100
O1224       O  0.25832011  0.83322768  0.77787624    -0.93400
O1225       O  0.28758051  0.81879876  0.82679795    -0.92200
C1226       C  0.23052460  0.87570318  0.88004500     1.16800
H1227       H  0.29674168  0.90131372  0.74774337     0.32800
H1228       H  0.33745518  0.86995094  0.86926270     0.43600
H1229       H  0.29250304  0.94717752  0.88544712     0.37100
H1230       H  0.40671481  0.98835620  0.82257452     0.33600
H1231       H  0.32930396  0.82742509  0.77206461     0.25400
H1232       H  0.45076918  0.96682321  0.88113623     0.31400
H1233       H  0.38747369  0.54484641  0.90095670     0.37300
H1234       H  0.25948269  0.81910426  0.76051196     0.31700
H1235       H  0.22679633  0.86360977  0.79260416     0.30600
H1236       H  0.23468077  0.93746663  0.80280606     0.32300
H1237       H  0.31648097  0.50038204  0.84289826     0.31300
H1238       H  0.27629314  0.82023519  0.84819175     0.35200
H1239       H  0.28201769  0.85130062  0.94752954     0.28000
H1240       H  0.39535195  0.97278688  0.69860826     0.32200
H1241       H  0.39656028  0.53112639  0.81263574     0.35100
H1242       H  0.22292983  0.88769637  0.77155579     0.27700
H1243       H  0.29521286  0.88008287  0.97333288     0.40500
H1244       H  0.40451284  0.89044557  0.81998388     0.30600
H1245       H  0.36037652  0.85913977  0.77444353     0.38200
H1246       H  0.33502854  0.02449352  0.85474635     0.30100
H1247       H  0.43866071  0.98880884  0.87581481     0.30100
H1248       H  0.39890791  0.00123634  0.71888022     0.30400
C1249       C  0.36017168  0.89340233  0.61132394     0.79600
N1250       N  0.35743231  0.89901099  0.64732122    -0.78700
C1251       C  0.33356024  0.87793145  0.66831610     0.82000
N1252       N  0.31175080  0.85044488  0.65284829    -0.78700
C1253       C  0.31456822  0.84484385  0.61651547     0.82100
N1254       N  0.33863939  0.86623199  0.59658935    -0.80400
C1255       C  0.28221537  0.00776935  0.67158546     0.79600
N1256       N  0.29149253  0.98927604  0.68514605    -0.78700
C1257       C  0.29606819  0.98863644  0.72210356     0.82000
N1258       N  0.29086637  0.00589205  0.74527567    -0.78700
C1259       C  0.31062276  0.54547045  0.72488391     0.82100
N1260       N  0.30107866  0.54139750  0.68885877    -0.80400
C1261       C  0.37508364  0.87129432  0.95364714     0.79600
N1262       N  0.36671918  0.84567052  0.93438427    -0.78700
C1263       C  0.37120734  0.82432201  0.94838827     0.82000
N1264       N  0.38455611  0.82903640  0.98234151    -0.78700
C1265       C  0.39338409  0.85440612  0.00268818     0.82100
N1266       N  0.38850030  0.87602362  0.98839144    -0.80400
Zr1267     Zr  0.46719498  0.74696164  0.56658323     2.17500
O1268       O  0.44587517  0.76806756  0.60880374    -0.52000
O1269       O  0.46844047  0.71680230  0.61659269    -0.75200
O1270       O  0.40934124  0.71761685  0.56837695    -0.81900
O1271       O  0.04967344  0.82558832  0.57765538    -0.83700
O1272       O  0.39430152  0.68521193  0.51921524    -0.79300
O1273       O  0.00271578  0.79459710  0.60497644    -0.91000
O1274       O  0.00887414  0.71160213  0.60806896    -0.76900
O1275       O  0.46062256  0.70113501  0.54329857    -0.86400
O1276       O  0.02149222  0.75958514  0.56360489    -0.86100
O1277       O  0.44473619  0.74201486  0.50598279    -0.72900
O1278       O  0.00142207  0.79380032  0.52440415    -0.85000
Zr1279     Zr  0.02198791  0.74564620  0.43813269     2.26400
Zr1280     Zr  0.43892383  0.69626796  0.48238141     2.06300
Zr1281     Zr  0.05180914  0.79979832  0.52217864     2.10000
Zr1282     Zr  0.01520603  0.71375676  0.54172983     1.78800
O1283       O  0.07681359  0.85340371  0.50832972    -0.93800
O1284       O  0.47947554  0.65514448  0.55102169    -0.41600
O1285       O  0.04578948  0.75373129  0.49910261    -0.78200
O1286       O  0.48964324  0.70251709  0.48052684    -0.96900
O1287       O  0.46854247  0.73782970  0.44181455    -0.90200
O1288       O  0.03015019  0.79259880  0.46064250    -0.93100
C1289       C  0.48793142  0.70984776  0.62844655     1.00700
C1290       C  0.02971211  0.81894996  0.60341532     1.13600
C1291       C  0.38832590  0.69588902  0.54783072     1.04400
O1292       O  0.41001156  0.64312974  0.49962701    -0.95200
O1293       O  0.44143279  0.66657573  0.43247479    -0.91000
O1294       O  0.48945246  0.69476578  0.40644630    -0.84100
C1295       C  0.46246955  0.67021766  0.40972096     1.11000
O1296       O  0.45831489  0.81319416  0.49836785    -0.97200
Zr1297     Zr  0.47654701  0.78386656  0.46719251     1.88900
O1298       O  0.01373672  0.76871363  0.38290794    -0.73800
O1299       O  0.39867093  0.68823646  0.43742212    -0.53100
O1300       O  0.42600924  0.77435231  0.44583766    -0.97800
O1301       O  0.01640172  0.83847392  0.44746637    -0.55000
O1302       O  0.47640144  0.78295672  0.40079793    -0.74400
C1303       C  0.99601058  0.77877266  0.37394500     0.98000
O1304       O  0.04488578  0.72795128  0.39328394    -0.63200
O1305       O  0.09607370  0.80928829  0.56109494    -0.58000
O1306       O  0.07990041  0.77617577  0.43723056    -0.94700
O1307       O  0.09544003  0.81110771  0.48367044    -0.93100
O1308       O  0.06608854  0.72959147  0.56905709    -0.93400
O1309       O  0.03903742  0.68686770  0.51810279    -0.92200
C1310       C  0.10099696  0.79947867  0.45573459     1.16800
H1311       H  0.03145349  0.76505336  0.58778536     0.32800
H1312       H  0.48849384  0.68433959  0.47223896     0.43600
H1313       H  0.04404552  0.80903183  0.44467841     0.37100
H1314       H  0.42502704  0.74089552  0.50676437     0.33600
H1315       H  0.49162260  0.65065952  0.56871963     0.25400
H1316       H  0.38995458  0.69996708  0.44732444     0.31400
H1317       H  0.41709916  0.75591891  0.43008601     0.37300
H1318       H  0.07819543  0.75192754  0.56755722     0.31700
H1319       H  0.11003694  0.83161012  0.56213107     0.30600
H1320       H  0.09409881  0.86377130  0.52680681     0.32300
H1321       H  0.51737075  0.84801576  0.47565963     0.31300
H1322       H  0.04577478  0.69482044  0.49282960     0.35200
H1323       H  0.05797131  0.74534994  0.37701369     0.28000
H1324       H  0.43279839  0.75174060  0.62640578     0.32200
H1325       H  0.44466095  0.79985710  0.51826550     0.35100
H1326       H  0.08775036  0.80367318  0.58643616     0.27700
H1327       H  0.05977776  0.72465797  0.40742532     0.40500
H1328       H  0.42588527  0.63742165  0.50049591     0.30600
H1329       H  0.46156620  0.65229248  0.56551386     0.38200
H1330       H  0.00400621  0.84435390  0.43227612     0.30100
H1331       H  0.41022204  0.69942797  0.41515012     0.30100
H1332       H  0.43102415  0.77092065  0.59389370     0.30400
Zr1333     Zr  0.42814328  0.85665555  0.23263958     2.17500
O1334       O  0.44574863  0.88167067  0.29308952    -0.52000
O1335       O  0.38017613  0.84161131  0.26784129    -0.75200
O1336       O  0.45300912  0.91265667  0.22984458    -0.81900
O1337       O  0.42073417  0.78664449  0.26421031    -0.83700
O1338       O  0.44934701  0.92623357  0.17083624    -0.79300
O1339       O  0.45397324  0.83649916  0.27107312    -0.91000
O1340       O  0.33846371  0.80973131  0.23095615    -0.76900
O1341       O  0.39525340  0.85755483  0.18463836    -0.86400
O1342       O  0.38895594  0.80467560  0.21916083    -0.86100
O1343       O  0.46040595  0.88062582  0.17895832    -0.72900
O1344       O  0.45455321  0.83209497  0.21141999    -0.85000
Zr1345     Zr  0.41557328  0.80510074  0.09767993     2.26400
Zr1346     Zr  0.42697589  0.88084687  0.13100920     2.06300
Zr1347     Zr  0.41538969  0.78063307  0.19731178     2.10000
Zr1348     Zr  0.35674560  0.80579357  0.17140607     1.78800
O1349       O  0.45685276  0.76987117  0.20162709    -0.93800
O1350       O  0.32796881  0.83083325  0.16064897    -0.41600
O1351       O  0.38239205  0.78123339  0.14975596    -0.78200
O1352       O  0.38753037  0.82870252  0.11773072    -0.96900
O1353       O  0.45403629  0.85686574  0.11099956    -0.90200
O1354       O  0.44834700  0.80400606  0.14502530    -0.93100
C1355       C  0.35053305  0.82424622  0.26128571     1.00700
C1356       C  0.44536278  0.80898424  0.27869719     1.13600
C1357       C  0.45805235  0.93260433  0.20509171     1.04400
O1358       O  0.39060660  0.89799557  0.12545533    -0.95200
O1359       O  0.41238734  0.87629267  0.06443799    -0.91000
O1360       O  0.40471050  0.83049820  0.04888020    -0.84100
C1361       C  0.40475688  0.85459084  0.04102471     1.11000
O1362       O  0.02343788  0.88593110  0.20575230    -0.97200
Zr1363     Zr  0.48605785  0.85588214  0.15916239     1.88900
O1364       O  0.46412418  0.81810727  0.06493473    -0.73800
O1365       O  0.47004536  0.92248523  0.09773871    -0.53100
O1366       O  0.52849933  0.90549633  0.13975554    -0.97800
O1367       O  0.51623232  0.83302622  0.17384115    -0.55000
O1368       O  0.50528463  0.85171787  0.10118404    -0.74400
C1369       C  0.49365361  0.83640655  0.07143557     0.98000
O1370       O  0.39515965  0.77359247  0.04181319    -0.63200
O1371       O  0.38222714  0.73220566  0.22773103    -0.58000
O1372       O  0.38563206  0.74877461  0.10024357    -0.94700
O1373       O  0.38707021  0.73526442  0.15976106    -0.93100
O1374       O  0.31926698  0.75311929  0.18632192    -0.93400
O1375       O  0.31350128  0.78037524  0.12685027    -0.92200
C1376       C  0.37874981  0.72884912  0.12568439     1.16800
H1377       H  0.37710328  0.79391908  0.24064325     0.32800
H1378       H  0.37268984  0.82714892  0.09933601     0.43600
H1379       H  0.45767467  0.79295497  0.13662554     0.37100
H1380       H  0.47815518  0.90063698  0.18409847     0.33600
H1381       H  0.33424027  0.84561298  0.18129822     0.25400
H1382       H  0.46894603  0.94051264  0.10342027     0.31400
H1383       H  0.04722149  0.90678446  0.13735474     0.37300
H1384       H  0.33150788  0.74666854  0.20081955     0.31700
H1385       H  0.39628841  0.72956733  0.24448148     0.30600
H1386       H  0.44852961  0.75201449  0.21783548     0.32300
H1387       H  0.03985702  0.85146945  0.16066819     0.31300
H1388       H  0.32197595  0.77462144  0.10599774     0.35200
H1389       H  0.37535769  0.77245213  0.03566520     0.28000
H1390       H  0.43571489  0.89353145  0.29614875     0.32200
H1391       H  0.01187349  0.87712879  0.22889522     0.35100
H1392       H  0.36876839  0.73542754  0.24441476     0.27700
H1393       H  0.40961653  0.78587308  0.02187587     0.40500
H1394       H  0.40120365  0.91582317  0.10913555     0.30600
H1395       H  0.33767270  0.84343938  0.13855113     0.38200
H1396       H  0.51067913  0.81738567  0.15450433     0.30100
H1397       H  0.48916718  0.92626474  0.11089920     0.30100
H1398       H  0.46833484  0.89697455  0.29050538     0.30400
C1399       C  0.28541696  0.83053854  0.29068028     0.79600
N1400       N  0.31038188  0.83410807  0.27273062    -0.78700
C1401       C  0.32756871  0.82337777  0.28668158     0.82000
N1402       N  0.31921129  0.80806738  0.31946237    -0.78700
C1403       C  0.29342638  0.80397352  0.33755471     0.82100
N1404       N  0.27681689  0.81530347  0.32289441    -0.80400
C1405       C  0.49135491  0.78756572  0.33887847     0.79600
N1406       N  0.46889286  0.79339048  0.32809953    -0.78700
C1407       C  0.46898483  0.80309386  0.29312468     0.82000
N1408       N  0.49113286  0.80667168  0.26936929    -0.78700
C1409       C  0.01527510  0.79881669  0.27523627     0.82100
N1410       N  0.51359193  0.79153202  0.31453917    -0.80400
Zr1411     Zr  0.25104323  0.97211610  0.44106603     2.17500
O1412       O  0.26940358  0.94281143  0.40951586    -0.52000
O1413       O  0.22765850  0.97759898  0.38364363    -0.75200
O1414       O  0.22019339  0.91653855  0.43807570    -0.81900
O1415       O  0.31873023  0.54916850  0.42065382    -0.83700
O1416       O  0.18255190  0.90264898  0.48121139    -0.79300
O1417       O  0.30446143  0.50140277  0.42567135    -0.91000
O1418       O  0.20977627  0.00924955  0.39158086    -0.76900
O1419       O  0.20279229  0.96696831  0.45719989    -0.86400
O1420       O  0.26021230  0.52126186  0.44178060    -0.86100
O1421       O  0.24129425  0.95173119  0.50238807    -0.72900
O1422       O  0.29379487  0.50058826  0.48511173    -0.85000
Zr1423     Zr  0.24369588  0.52552336  0.56392193     2.26400
Zr1424     Zr  0.19294128  0.94665463  0.51799357     2.06300
Zr1425     Zr  0.30294000  0.55079213  0.48469187     2.10000
Zr1426     Zr  0.21361160  0.51779311  0.46027116     1.78800
O1427       O  0.35344209  0.56005585  0.50553351    -0.93800
O1428       O  0.15531605  0.98432626  0.44247181    -0.41600
O1429       O  0.25545599  0.54743286  0.50319309    -0.78200
O1430       O  0.19965209  0.99599293  0.51749824    -0.96900
O1431       O  0.23368363  0.97689359  0.56250771    -0.90200
O1432       O  0.29217777  0.53086656  0.54635861    -0.93100
C1433       C  0.21575482  0.99274362  0.37155490     1.00700
C1434       C  0.31336806  0.52448782  0.40575123     1.13600
C1435       C  0.19572522  0.89650641  0.45525920     1.04400
O1436       O  0.13941762  0.91942653  0.49371509    -0.95200
O1437       O  0.16113688  0.95039239  0.56453640    -0.91000
O1438       O  0.19033118  0.99737828  0.59102499    -0.84100
C1439       C  0.16517630  0.97117528  0.58720999     1.11000
O1440       O  0.30915428  0.95933169  0.52201322    -0.97200
Zr1441     Zr  0.28235256  0.98352885  0.54530408     1.88900
O1442       O  0.27187675  0.52595290  0.61938212    -0.73800
O1443       O  0.18107651  0.90778763  0.56355941    -0.53100
O1444       O  0.26275956  0.93535673  0.57626759    -0.97800
O1445       O  0.33874770  0.50670831  0.55898374    -0.55000
O1446       O  0.28383887  0.99272330  0.61089356    -0.74400
C1447       C  0.28461727  0.51173330  0.63124134     0.98000
O1448       O  0.23000429  0.54922899  0.61236347    -0.63200
O1449       O  0.33506280  0.60139314  0.45903410    -0.58000
O1450       O  0.26896509  0.58036705  0.55777418    -0.94700
O1451       O  0.30953755  0.59428771  0.51906610    -0.93100
O1452       O  0.23579103  0.56738468  0.43215971    -0.93400
O1453       O  0.18822047  0.54335613  0.48347023    -0.92200
C1454       C  0.29427470  0.60035695  0.54212996     1.16800
H1455       H  0.26500528  0.53013632  0.41751150     0.32800
H1456       H  0.18062146  0.99516426  0.52353008     0.43600
H1457       H  0.30909290  0.54435487  0.56303524     0.37100
H1458       H  0.23966153  0.93242059  0.50301545     0.33600
H1459       H  0.15149626  0.99490785  0.42234610     0.25400
H1460       H  0.15935530  0.89132246  0.55742636     0.31400
H1461       H  0.28152100  0.93679977  0.58755184     0.37300
H1462       H  0.25804866  0.57881892  0.44022547     0.31700
H1463       H  0.35468359  0.60307845  0.45118347     0.30600
H1464       H  0.36609083  0.56553739  0.48284350     0.32300
H1465       H  0.34167998  0.02938830  0.57621298     0.31300
H1466       H  0.19942672  0.55306625  0.50702358     0.35200
H1467       H  0.24999218  0.56479395  0.62435914     0.28000
H1468       H  0.28103709  0.93908213  0.42885994     0.32200
H1469       H  0.29830847  0.94966054  0.49829344     0.35100
H1470       H  0.32433687  0.60103287  0.43570025     0.27700
H1471       H  0.22207561  0.56068904  0.59950861     0.40500
H1472       H  0.13139442  0.93277220  0.49892578     0.30600
H1473       H  0.15290554  0.96613390  0.43026619     0.38200
H1474       H  0.34842999  0.51134725  0.53426986     0.30100
H1475       H  0.19407623  0.89952268  0.55654010     0.30100
H1476       H  0.28569027  0.95628136  0.39187146     0.30400
Zr1477     Zr  0.11462453  0.70241233  0.89793422     2.17500
O1478       O  0.16381014  0.73191609  0.93268631    -0.52000
O1479       O  0.08232829  0.69501513  0.95068691    -0.75200
O1480       O  0.13545406  0.75784135  0.90015260    -0.81900
O1481       O  0.11369480  0.62870821  0.91333214    -0.83700
O1482       O  0.11287714  0.76740483  0.85157350    -0.79300
O1483       O  0.13001431  0.67496880  0.93896895    -0.91000
O1484       O  0.03261517  0.65551534  0.93978499    -0.76900
O1485       O  0.06879428  0.70051632  0.87582448    -0.86400
O1486       O  0.07377119  0.65016409  0.89472045    -0.86100
O1487       O  0.12828720  0.72431786  0.83761690    -0.72900
O1488       O  0.13186666  0.67710134  0.85789989    -0.85000
Zr1489     Zr  0.05783686  0.64554116  0.76964582     2.26400
Zr1490     Zr  0.08200139  0.72151404  0.81498092     2.06300
Zr1491     Zr  0.08964583  0.62530791  0.85331392     2.10000
Zr1492     Zr  0.02837931  0.64811939  0.87282033     1.78800
O1493       O  0.13073076  0.61616914  0.83698211    -0.93800
O1494       O  0.99659433  0.66988244  0.88374585    -0.41600
O1495       O  0.04363192  0.62287583  0.83005883    -0.78200
O1496       O  0.04023760  0.66935206  0.81229157    -0.96900
O1497       O  0.09912207  0.69758593  0.77304619    -0.90200
O1498       O  0.10308172  0.64674716  0.79293668    -0.93100
C1499       C  0.05484457  0.67471513  0.96132356     1.00700
C1500       C  0.12695251  0.64879147  0.93913016     1.13600
C1501       C  0.13124095  0.77591930  0.88000163     1.04400
O1502       O  0.05018026  0.74140446  0.83487576    -0.95200
O1503       O  0.04683193  0.71363813  0.76394498    -0.91000
O1504       O  0.03029821  0.66719765  0.73886023    -0.84100
C1505       C  0.02994045  0.69170317  0.74137715     1.11000
O1506       O  0.19600435  0.73035198  0.82544450    -0.97200
Zr1507     Zr  0.14403579  0.69883249  0.79756153     1.88900
O1508       O  0.09334865  0.65371759  0.71791456    -0.73800
O1509       O  0.11125040  0.76224487  0.77123448    -0.53100
O1510       O  0.17406261  0.74942967  0.77163704    -0.97800
O1511       O  0.17670941  0.67783830  0.78755681    -0.55000
O1512       O  0.14309187  0.69151955  0.73223252    -0.74400
C1513       C  0.12238548  0.67212538  0.70982933     0.98000
O1514       O  0.02095481  0.61917237  0.71837683    -0.63200
O1515       O  0.06000142  0.57761432  0.88625106    -0.58000
O1516       O  0.03138926  0.58962378  0.77332501    -0.94700
O1517       O  0.05913610  0.58030161  0.81526263    -0.93100
O1518       O  0.00092738  0.59785384  0.89987665    -0.93400
O1519       O  0.47437116  0.62169259  0.85460028    -0.92200
C1520       C  0.03776009  0.57166480  0.79016569     1.16800
H1521       H  0.06984819  0.64062534  0.91858163     0.32800
H1522       H  0.02083834  0.66718062  0.80422982     0.43600
H1523       H  0.10849049  0.63517406  0.77726776     0.37100
H1524       H  0.14591231  0.74491273  0.83862210     0.33600
H1525       H  0.00836458  0.68591080  0.90273333     0.25400
H1526       H  0.10325510  0.77583809  0.77461704     0.31400
H1527       H  0.16045711  0.74961330  0.75176988     0.37300
H1528       H  0.00000663  0.58420068  0.88005575     0.31700
H1529       H  0.07531001  0.57183560  0.89263859     0.30600
H1530       H  0.12040545  0.59385485  0.83713154     0.32300
H1531       H  0.19321784  0.69222236  0.77064892     0.31300
H1532       H  0.46197517  0.61715960  0.87740972     0.35200
H1533       H  0.02720778  0.60585399  0.70702527     0.28000
H1534       H  0.16038154  0.74384468  0.95130607     0.32200
H1535       H  0.19412017  0.72245347  0.85080873     0.35100
H1536       H  0.05462576  0.58287408  0.91022942     0.27700
H1537       H  0.00053743  0.60523685  0.72995639     0.40500
H1538       H  0.02910384  0.72757978  0.82395693     0.30600
H1539       H  0.99830499  0.68101317  0.86084173     0.38200
H1540       H  0.16382287  0.65936293  0.77222458     0.30100
H1541       H  0.13286712  0.77387044  0.78149038     0.30100
H1542       H  0.17890734  0.74696462  0.91506714     0.30400
C1543       C  0.12826767  0.64232439  0.61938361     0.79600
N1544       N  0.15741234  0.66408859  0.60919426    -0.78700
C1545       C  0.17479257  0.68934874  0.63003359     0.82000
N1546       N  0.16278372  0.69282837  0.66188212    -0.78700
C1547       C  0.13375126  0.67042802  0.67309987     0.82100
N1548       N  0.11662026  0.64527120  0.65168730    -0.80400
C1549       C  0.00591898  0.69349645  0.72062402     0.79600
N1550       N  0.01058413  0.70362380  0.68516533    -0.78700
C1551       C  0.98818897  0.70637363  0.66751793     0.82000
N1552       N  0.46990280  0.71222711  0.68883433    -0.78700
C1553       C  0.46996345  0.71167200  0.72619472     0.82100
N1554       N  0.97865592  0.68532611  0.73773409    -0.80400
Zr1555     Zr  0.20123184  0.61359651  0.10963835     2.17500
O1556       O  0.23144792  0.65603771  0.06839368    -0.52000
O1557       O  0.19700202  0.58584938  0.05271466    -0.75200
O1558       O  0.25821393  0.63952382  0.11478792    -0.81900
O1559       O  0.12432253  0.60141515  0.07674829    -0.83700
O1560       O  0.26796930  0.61463512  0.15910438    -0.79300
O1561       O  0.17399027  0.63732271  0.08748526    -0.91000
O1562       O  0.16503987  0.53506154  0.06062728    -0.76900
O1563       O  0.20384412  0.57184843  0.13117714    -0.86400
O1564       O  0.14942126  0.56995210  0.10312799    -0.86100
O1565       O  0.21914053  0.62635318  0.17292023    -0.72900
O1566       O  0.16813967  0.62413126  0.14586670    -0.85000
Zr1567     Zr  0.13700044  0.54962908  0.22672588     2.26400
Zr1568     Zr  0.22069098  0.58382369  0.19466550     2.06300
Zr1569     Zr  0.11642102  0.57975593  0.14002054     2.10000
Zr1570     Zr  0.15191675  0.52864230  0.12549755     1.78800
O1571       O  0.10207823  0.61689379  0.15170435    -0.93800
O1572       O  0.18405936  0.50659201  0.12052544    -0.41600
O1573       O  0.11858419  0.53749418  0.16316084    -0.78200
O1574       O  0.16918648  0.53933727  0.18832883    -0.96900
O1575       O  0.18831797  0.59347148  0.23291489    -0.90200
O1576       O  0.13327448  0.59081852  0.20399225    -0.93100
C1577       C  0.18220753  0.55827435  0.04073326     1.00700
C1578       C  0.15051825  0.62374827  0.06536582     1.13600
C1579       C  0.27666750  0.63424631  0.13317969     1.04400
O1580       O  0.24858205  0.55763336  0.18750724    -0.95200
O1581       O  0.21225294  0.54907915  0.24438162    -0.91000
O1582       O  0.16089989  0.52543058  0.25977501    -0.84100
C1583       C  0.18823979  0.52913047  0.26209223     1.11000
O1584       O  0.21281860  0.68673882  0.18871344    -0.97200
Zr1585     Zr  0.18485708  0.63442063  0.20950248     1.88900
O1586       O  0.13690442  0.57816882  0.28103025    -0.73800
O1587       O  0.25809311  0.61788341  0.24165278    -0.53100
O1588       O  0.23171403  0.66744080  0.24673657    -0.97800
O1589       O  0.15123341  0.65450862  0.21808424    -0.55000
O1590       O  0.17178707  0.62841140  0.27387473    -0.74400
C1591       C  0.15218418  0.60575094  0.29291619     0.98000
O1592       O  0.10937477  0.50924156  0.27168499    -0.63200
O1593       O  0.06843617  0.54933653  0.10351275    -0.58000
O1594       O  0.08004603  0.52088660  0.21900756    -0.94700
O1595       O  0.06917373  0.54479933  0.17425391    -0.93100
O1596       O  0.10235426  0.49571115  0.09307798    -0.93400
O1597       O  0.11594816  0.97778843  0.14459793    -0.92200
C1598       C  0.06100453  0.52515324  0.20017739     1.16800
H1599       H  0.14178714  0.56608020  0.07784421     0.32800
H1600       H  0.16895352  0.52141342  0.19553383     0.43600
H1601       H  0.11858891  0.59320554  0.21822685     0.37100
H1602       H  0.23954293  0.64468908  0.17475729     0.33600
H1603       H  0.17421455  0.49140784  0.10022037     0.25400
H1604       H  0.27448171  0.61285008  0.24247306     0.31400
H1605       H  0.24949719  0.67500636  0.22965381     0.37300
H1606       H  0.10040371  0.50901967  0.07521350     0.31700
H1607       H  0.06548420  0.56397471  0.08950062     0.30600
H1608       H  0.07980505  0.60658066  0.14389798     0.32300
H1609       H  0.15193263  0.66438272  0.19442540     0.31300
H1610       H  0.11319572  0.96525991  0.12247117     0.35200
H1611       H  0.09475167  0.51345967  0.28440539     0.28000
H1612       H  0.24562680  0.65183577  0.05455264     0.32200
H1613       H  0.20984544  0.68527183  0.16146468     0.35100
H1614       H  0.07376678  0.53906220  0.08457619     0.27700
H1615       H  0.09591411  0.49038458  0.25716075     0.40500
H1616       H  0.26496351  0.56615724  0.20722636     0.30600
H1617       H  0.20413355  0.52281219  0.11025498     0.38200
H1618       H  0.16268808  0.67141399  0.23611523     0.30100
H1619       H  0.26849299  0.63818567  0.23035849     0.30100
H1620       H  0.24513333  0.67402349  0.08421144     0.30400
C1621       C  0.11167388  0.60076953  0.37964487     0.79600
N1622       N  0.11798721  0.59385830  0.34593766    -0.78700
C1623       C  0.14639124  0.61222675  0.33057374     0.82000
N1624       N  0.16835328  0.63795822  0.34888810    -0.78700
C1625       C  0.16189314  0.64487717  0.38260566     0.82100
N1626       N  0.13356947  0.62630530  0.39771100    -0.80400
C1627       C  0.19154243  0.50657429  0.28218817     0.79600
N1628       N  0.18456237  0.48077218  0.26395405    -0.78700
C1629       C  0.18958032  0.95907374  0.27873689     0.82000
N1630       N  0.20079209  0.96474115  0.31393946    -0.78700
C1631       C  0.20709487  0.49064958  0.33461166     0.82100
N1632       N  0.20256706  0.51146690  0.31778904    -0.80400
C1633       C  0.15672301  0.63246786  0.02572903     0.79600
N1634       N  0.18589564  0.64157086  0.01381800    -0.78700
C1635       C  0.19462265  0.65084781  0.97869692     0.82000
N1636       N  0.17437442  0.65220629  0.95552585    -0.78700
C1637       C  0.14540791  0.64388291  0.96647128     0.82100
N1638       N  0.13605859  0.63381149  0.00190403    -0.80400
Zr1639     Zr  0.05213852  0.92187339  0.77127396     2.17500
O1640       O  0.00744644  0.90664528  0.73010724    -0.52000
O1641       O  0.07963400  0.94190543  0.71423894    -0.75200
O1642       O  0.03142512  0.95519806  0.77159965    -0.81900
O1643       O  0.05840563  0.85508311  0.74482198    -0.83700
O1644       O  0.06056252  0.99267489  0.81356810    -0.79300
O1645       O  0.02479006  0.87001448  0.74983737    -0.91000
O1646       O  0.13138247  0.95921247  0.72156568    -0.76900
O1647       O  0.09959480  0.96731475  0.78871441    -0.86400
O1648       O  0.09321924  0.91151644  0.76862333    -0.86100
O1649       O  0.04223170  0.93201196  0.83260655    -0.72900
O1650       O  0.03647608  0.87946781  0.81138791    -0.85000
Zr1651     Zr  0.11672423  0.92634926  0.89059833     2.26400
Zr1652     Zr  0.09031071  0.97706992  0.85044521     2.06300
Zr1653     Zr  0.07805590  0.86969142  0.80927787     2.10000
Zr1654     Zr  0.13991043  0.95622831  0.78728136     1.78800
O1655       O  0.03274044  0.82024932  0.82379006    -0.93800
O1656       O  0.17092712  0.01060608  0.77650624    -0.41600
O1657       O  0.12603075  0.91516631  0.82881637    -0.78200
O1658       O  0.13206177  0.96761380  0.84869002    -0.96900
O1659       O  0.07596140  0.93656972  0.89296858    -0.90200
O1660       O  0.06987899  0.88057888  0.87121465    -0.93100
C1661       C  0.10724781  0.95279387  0.70185976     1.00700
C1662       C  0.03843029  0.86023203  0.73005215     1.13600
C1663       C  0.03912073  0.98005203  0.78835245     1.04400
O1664       O  0.12105980  0.52682995  0.83792543    -0.95200
O1665       O  0.12694391  0.00484792  0.90042482    -0.91000
O1666       O  0.14240064  0.97471614  0.92575341    -0.84100
C1667       C  0.14301458  0.99976676  0.92361554     1.11000
O1668       O  0.47345892  0.86452568  0.85854574    -0.97200
Zr1669     Zr  0.02926202  0.89114400  0.87325523     1.88900
O1670       O  0.08615632  0.89801520  0.94419985    -0.73800
O1671       O  0.06198699  0.98914393  0.89430243    -0.53100
O1672       O  0.00685145  0.91420093  0.90993757    -0.97800
O1673       O  0.99482141  0.83654179  0.88039564    -0.55000
O1674       O  0.03444533  0.88054030  0.93667838    -0.74400
C1675       C  0.05773681  0.88396870  0.95545255     0.98000
O1676       O  0.16319444  0.94462131  0.92997034    -0.63200
O1677       O  0.10026158  0.84309209  0.78000297    -0.58000
O1678       O  0.13868492  0.89408857  0.88781643    -0.94700
O1679       O  0.10885330  0.85557910  0.84710911    -0.93100
O1680       O  0.16816319  0.93752747  0.75386094    -0.93400
O1681       O  0.19369156  0.97735417  0.80871585    -0.92200
C1682       C  0.13058806  0.86872600  0.87201029     1.16800
H1683       H  0.09647934  0.90664343  0.74398739     0.32800
H1684       H  0.15168177  0.98523821  0.85656527     0.43600
H1685       H  0.06545078  0.86381197  0.88689451     0.37100
H1686       H  0.02491750  0.93500484  0.83349968     0.33600
H1687       H  0.18217687  0.50973733  0.75901176     0.25400
H1688       H  0.04089631  0.98061922  0.88304636     0.31400
H1689       H  0.49816438  0.90163250  0.93412433     0.37300
H1690       H  0.15447934  0.91520055  0.75490093     0.31700
H1691       H  0.08215302  0.82399822  0.76997336     0.30600
H1692       H  0.02596102  0.80928385  0.79972777     0.32300
H1693       H  0.48637748  0.83098384  0.91030390     0.31300
H1694       H  0.19184648  0.96627893  0.83173840     0.35200
H1695       H  0.15891998  0.92744835  0.94593070     0.28000
H1696       H  0.01330977  0.92419371  0.71402962     0.32200
H1697       H  0.47239236  0.88001202  0.84392735     0.35100
H1698       H  0.11117150  0.85516895  0.75793512     0.27700
H1699       H  0.18001849  0.94759519  0.91324384     0.40500
H1700       H  0.14133958  0.52918638  0.83184536     0.30600
H1701       H  0.17483262  0.02008515  0.80140460     0.38200
H1702       H  0.00848786  0.82954011  0.88962604     0.30100
H1703       H  0.05854341  0.97611994  0.91588835     0.30100
H1704       H  0.99034059  0.90437079  0.74577252     0.30400
C1705       C  0.01895989  0.87759128  0.63820663     0.79600
N1706       N  0.02454049  0.86051541  0.61549785    -0.78700
C1707       C  0.03445332  0.84275274  0.62879099     0.82000
N1708       N  0.03854051  0.84150870  0.66612452    -0.78700
C1709       C  0.03360846  0.85924992  0.68942831     0.82100
N1710       N  0.02338623  0.87670131  0.67517852    -0.80400
C1711       C  0.08992781  0.96346827  0.60603696     0.79600
N1712       N  0.11538522  0.96741732  0.58833931    -0.78700
C1713       C  0.13795421  0.96581844  0.60711074     0.82000
N1714       N  0.13605793  0.96164241  0.64424319    -0.78700
C1715       C  0.11057731  0.95752552  0.66207264     0.82100
N1716       N  0.08771205  0.95815758  0.64288585    -0.80400
C1717       C  0.06754561  0.84830287  0.03744405     0.79600
N1718       N  0.07262722  0.86303128  0.00514695    -0.78700
C1719       C  0.05151275  0.86919971  0.99144043     0.82000
N1720       N  0.02444308  0.85990589  0.00997778    -0.78700
C1721       C  0.51745507  0.84010251  0.04532052     0.82100
N1722       N  0.53911936  0.83443028  0.05854158    -0.80400
C1723       C  0.21263556  0.57162514  0.94573725     0.79600
N1724       N  0.20924073  0.57522853  0.98216245    -0.78700
C1725       C  0.18483277  0.55319943  0.00128948     0.82000
N1726       N  0.16308876  0.52698604  0.98365585    -0.78700
C1727       C  0.16600899  0.52329667  0.94692286     0.82100
N1728       N  0.19063828  0.54563177  0.92826953    -0.80400
C1729       C  0.48156660  0.50923455  0.21925693     0.79600
N1730       N  0.01467793  0.52501473  0.21605256    -0.78700
C1731       C  0.02768952  0.50845544  0.21040637     0.82000
N1732       N  0.00952355  0.97800094  0.21036922    -0.78700
C1733       C  0.47817942  0.96530057  0.21501560     0.82100
N1734       N  0.46518930  0.98235030  0.22038890    -0.80400
C1735       C  0.30601247  0.67707469  0.55200054     0.79600
N1736       N  0.29121204  0.64619580  0.54944513    -0.78700
C1737       C  0.30797663  0.63257531  0.55112423     0.82000
N1738       N  0.33936508  0.64979925  0.55418919    -0.78700
C1739       C  0.35479562  0.68026265  0.55653294     0.82100
N1740       N  0.33812103  0.69418828  0.55484153    -0.80400
C1741       C  0.18302658  0.81959854  0.44031951     0.79600
N1742       N  0.15096169  0.80234138  0.44166974    -0.78700
C1743       C  0.13416379  0.81597287  0.44473758     0.82000
N1744       N  0.14956469  0.84651419  0.44726825    -0.78700
C1745       C  0.18103494  0.86404553  0.44565111     0.82100
N1746       N  0.19787929  0.85051290  0.44300147    -0.80400
C1747       C  0.02129236  0.99449072  0.78006698     0.79600
N1748       N  0.48914544  0.97703642  0.77705739    -0.78700
C1749       C  0.47263200  0.99099532  0.77434766     0.82000
N1750       N  0.48965009  0.52423729  0.77783373    -0.78700
C1751       C  0.01993770  0.53872099  0.78151542     0.82100
N1752       N  0.03540367  0.52395121  0.78510153    -0.80400
C1753       C  0.14795772  0.85394767  0.88196134     0.79600
N1754       N  0.17967478  0.87050758  0.88453856    -0.78700
C1755       C  0.19645918  0.85695996  0.88848356     0.82000
N1756       N  0.18077346  0.82595434  0.88981630    -0.78700
C1757       C  0.14867624  0.80902165  0.88775231     0.82100
N1758       N  0.13281636  0.82331621  0.88267574    -0.80400
C1759       C  0.35560489  0.64895858  0.12056429     0.79600
N1760       N  0.32433274  0.63505469  0.12430718    -0.78700
C1761       C  0.31001536  0.65076890  0.12386427     0.82000
N1762       N  0.32755649  0.68151629  0.12073544    -0.78700
C1763       C  0.35932503  0.69611793  0.11705314     0.82100
N1764       N  0.37327428  0.67965435  0.11783023    -0.80400
C1765       C  0.06374486  0.56758790  0.57929918    -0.23100
C1766       C  0.08079114  0.55365390  0.57402265     0.08900
C1767       C  0.11391485  0.57108384  0.57654051     0.09300
C1768       C  0.12880197  0.60123962  0.58780224    -0.18000
C1769       C  0.11149893  0.61397848  0.59799895    -0.28400
C1770       C  0.07878882  0.59773366  0.59158753     0.17600
C1771       C  0.06456496  0.52049076  0.57597829     0.11600
C1772       C  0.13371386  0.55749133  0.57103872    -0.12800
H1773       H  0.15398453  0.61406519  0.59204314     0.11900
C1774       C  0.05914191  0.61120075  0.59815601    -0.23600
H1775       H  0.03843033  0.55422057  0.57676828     0.07500
C1776       C  0.05524885  0.50683681  0.61103458     0.03800
C1777       C  0.05599149  0.48090418  0.61786515    -0.20800
C1778       C  0.07107082  0.47210637  0.59291162    -0.13100
C1779       C  0.07424806  0.48181756  0.55569423     0.12500
C1780       C  0.06927411  0.50520736  0.54730671    -0.23600
C1781       C  0.05042427  0.52244059  0.64332633    -0.06600
H1782       H  0.04844429  0.97228138  0.64069756     0.14100
C1783       C  0.08583518  0.47057529  0.52519190    -0.16800
H1784       H  0.07500293  0.51512276  0.51997989     0.08400
H1785       H  0.04285672  0.59922629  0.62120958     0.06300
H1786       H  0.04528031  0.60852124  0.57269470     0.07500
H1787       H  0.07338345  0.63573571  0.60485656     0.06500
H1788       H  0.13090045  0.54890575  0.54219938     0.01400
H1789       H  0.12683376  0.53876819  0.59080252     0.01900
H1790       H  0.15901634  0.57436665  0.57579151     0.05400
H1791       H  0.04351557  0.50851828  0.66875146     0.04400
H1792       H  0.03185259  0.52706842  0.63668076    -0.01400
H1793       H  0.07248745  0.54423322  0.64977283     0.00100
H1794       H  0.08743607  0.45100238  0.53353997     0.03700
H1795       H  0.10925978  0.48917418  0.51631048     0.05700
H1796       H  0.06935518  0.46307882  0.50114832     0.06500
C1797       C  0.09236288  0.81524410  0.23761180    -0.23100
C1798       C  0.10490897  0.84582622  0.22881940     0.08900
C1799       C  0.08441163  0.85642984  0.22383208     0.09300
C1800       C  0.05361051  0.83833439  0.23512406    -0.18000
C1801       C  0.04275712  0.81016039  0.25132794    -0.28400
C1802       C  0.06125834  0.79720486  0.24942054     0.17600
C1803       C  0.13779867  0.86845419  0.23903129     0.11600
C1804       C  0.09560359  0.88837299  0.21188993    -0.12800
H1805       H  0.03919644  0.84802569  0.23552897     0.11900
C1806       C  0.04927842  0.76516721  0.26089013    -0.23600
H1807       H  0.10780204  0.80670390  0.23996997     0.07500
C1808       C  0.14507853  0.87480180  0.27717031     0.03800
C1809       C  0.16545898  0.90466751  0.28852136    -0.20800
C1810       C  0.17756380  0.92847653  0.26305470    -0.13100
C1811       C  0.17452403  0.92146144  0.22467111     0.12500
C1812       C  0.15603862  0.89098915  0.21331031    -0.23600
C1813       C  0.12795586  0.85127540  0.30660005    -0.06600
H1814       H  0.16878147  0.90954522  0.31799556     0.14100
C1815       C  0.18838029  0.94502229  0.19490488    -0.16800
H1816       H  0.15161329  0.88568285  0.18405357     0.08400
H1817       H  0.06315121  0.76516710  0.28500441     0.06300
H1818       H  0.05166311  0.75264398  0.23750833     0.07500
H1819       H  0.02420450  0.75283283  0.26830942     0.06500
H1820       H  0.10649839  0.89273297  0.18431223     0.01400
H1821       H  0.11250334  0.90496053  0.23255633     0.01900
H1822       H  0.07624324  0.89246340  0.20949133     0.05400
H1823       H  0.13731266  0.86029990  0.33485321     0.04400
H1824       H  0.13038799  0.83158176  0.30187638    -0.01400
H1825       H  0.10278725  0.84362988  0.30617644     0.00100
H1826       H  0.20429440  0.96820940  0.20589057     0.03700
H1827       H  0.20121472  0.44096450  0.17737511     0.05700
H1828       H  0.16926555  0.94455870  0.17866859     0.06500
C1829       C  0.30907873  0.74941306  0.90733120    -0.23100
C1830       C  0.31633633  0.73097568  0.92749282     0.08900
C1831       C  0.34692794  0.74319846  0.94136522     0.09300
C1832       C  0.36698100  0.77478642  0.94302305    -0.18000
C1833       C  0.35663469  0.79381328  0.93093806    -0.28400
C1834       C  0.32868543  0.78095494  0.90920202     0.17600
C1835       C  0.28946902  0.70457316  0.94493446     0.11600
C1836       C  0.35725894  0.72293124  0.95661621    -0.12800
H1837       H  0.38943012  0.78450864  0.95713711     0.11900
C1838       C  0.31726439  0.79950323  0.89119118    -0.23600
H1839       H  0.28582617  0.73943239  0.89515592     0.07500
C1840       C  0.28042821  0.70823743  0.98063828     0.03800
C1841       C  0.24971460  0.68856926  0.99171842    -0.20800
C1842       C  0.22759465  0.66570382  0.96809939    -0.13100
C1843       C  0.23681748  0.66113491  0.93306445     0.12500
C1844       C  0.26800328  0.68024230  0.92226400    -0.23600
C1845       C  0.30194190  0.73468691  0.00584752    -0.06600
H1846       H  0.24216188  0.69304994  0.01757772     0.14100
C1847       C  0.21355876  0.63750906  0.90613219    -0.16800
H1848       H  0.27486002  0.67810814  0.89463450     0.08400
H1849       H  0.31133273  0.81098285  0.91252309     0.06300
H1850       H  0.29573027  0.78508241  0.87425537     0.07500
H1851       H  0.33541365  0.81637808  0.87247622     0.06500
H1852       H  0.35576240  0.70746522  0.93430131     0.01400
H1853       H  0.34206686  0.70906708  0.97959490     0.01900
H1854       H  0.38180077  0.73622357  0.96716566     0.05400
H1855       H  0.29033284  0.73449930  0.03189819     0.04400
H1856       H  0.30950944  0.75639679  0.99182339    -0.01400
H1857       H  0.32269086  0.73373343  0.01374718     0.00100
H1858       H  0.22524801  0.63549280  0.88138959     0.03700
H1859       H  0.19672714  0.64367024  0.89633400     0.05700
H1860       H  0.20052633  0.61515205  0.91970844     0.06500
C1861       C  0.32970986  0.62378605  0.75433869    -0.23100
C1862       C  0.36136785  0.63695144  0.76489148     0.08900
C1863       C  0.37385735  0.61800618  0.76713639     0.09300
C1864       C  0.35494222  0.58749352  0.75745807    -0.18000
C1865       C  0.32482351  0.57547014  0.74273482    -0.28400
C1866       C  0.31161591  0.59354131  0.74181055     0.17600
C1867       C  0.38271493  0.67061864  0.76574675     0.11600
C1868       C  0.40781003  0.62959167  0.77620719    -0.12800
H1869       H  0.36494326  0.57347522  0.75810084     0.11900
C1870       C  0.27902316  0.58192482  0.72709839    -0.23600
H1871       H  0.31963166  0.63768826  0.75339223     0.07500
C1872       C  0.38825319  0.68679833  0.73238405     0.03800
C1873       C  0.41922691  0.70806588  0.72320653    -0.20800
C1874       C  0.44387091  0.71140428  0.74569595    -0.13100
C1875       C  0.43746218  0.70372877  0.78344430     0.12500
C1876       C  0.40614058  0.68382025  0.79352643    -0.23600
C1877       C  0.36262968  0.67966730  0.70454823    -0.06600
H1878       H  0.42397474  0.71755363  0.69565590     0.14100
C1879       C  0.46284924  0.71383170  0.81242150    -0.16800
H1880       H  0.40115118  0.67430614  0.82106469     0.08400
H1881       H  0.28029400  0.59453017  0.70175699     0.06300
H1882       H  0.26599836  0.55740569  0.72026461     0.07500
H1883       H  0.26541563  0.58547369  0.74819233     0.06500
H1884       H  0.41361799  0.63822524  0.80512082     0.01400
H1885       H  0.42318404  0.64743128  0.75640900     0.01900
H1886       H  0.41322628  0.61155992  0.77399825     0.05400
H1887       H  0.37161843  0.69528465  0.68066101     0.04400
H1888       H  0.34445480  0.68233145  0.71781667    -0.01400
H1889       H  0.35209058  0.65632725  0.69336742     0.00100
H1890       H  0.45815318  0.72460299  0.83592692     0.03700
H1891       H  0.48618134  0.73087791  0.80160202     0.05700
H1892       H  0.46331334  0.69400946  0.82273095     0.06500
C1893       C  0.42832497  0.90718355  0.56067239    -0.23100
C1894       C  0.45055756  0.92662682  0.58715469     0.08900
C1895       C  0.44487745  0.94652973  0.60703302     0.09300
C1896       C  0.41387053  0.93910645  0.61012139    -0.18000
C1897       C  0.38972170  0.91348510  0.59129310    -0.28400
C1898       C  0.39806925  0.90190132  0.56102495     0.17600
C1899       C  0.47158705  0.91745735  0.60276184     0.11600
C1900       C  0.47101290  0.97360936  0.62718132    -0.12800
H1901       H  0.40829788  0.95073805  0.63059848     0.11900
C1902       C  0.37531651  0.88233749  0.53082584    -0.23600
H1903       H  0.43337521  0.89373202  0.54249440     0.07500
C1904       C  0.46523957  0.90352293  0.63794082     0.03800
C1905       C  0.48190247  0.89055729  0.64982887    -0.20800
C1906       C  0.50402136  0.88990280  0.62755859    -0.13100
C1907       C  0.50862243  0.90159518  0.59117410     0.12500
C1908       C  0.49312331  0.91620362  0.57974205    -0.23600
C1909       C  0.43895084  0.89951595  0.66203668    -0.06600
H1910       H  0.47576705  0.87866482  0.67583207     0.14100
C1911       C  0.52825686  0.89740631  0.56355774    -0.16800
H1912       H  0.49643649  0.92518073  0.55198853     0.08400
H1913       H  0.38587358  0.89142206  0.50344404     0.06300
H1914       H  0.35335221  0.88240604  0.53164585     0.07500
H1915       H  0.36992357  0.85878573  0.53308693     0.06500
H1916       H  0.48789088  0.98903182  0.60636803     0.01400
H1917       H  0.48331620  0.96696104  0.64690612     0.01900
H1918       H  0.46237110  0.98612465  0.64273388     0.05400
H1919       H  0.43585374  0.88567679  0.68682666     0.04400
H1920       H  0.41651564  0.88770636  0.64612120    -0.01400
H1921       H  0.44375624  0.92164775  0.67236980     0.00100
H1922       H  0.51737532  0.87299818  0.55686716     0.03700
H1923       H  0.05050297  0.90954186  0.57027968     0.05700
H1924       H  0.02805984  0.91222288  0.53299905     0.06500
C1925       C  0.29099842  0.06121450  0.90455570    -0.23100
C1926       C  0.31280862  0.59160347  0.89463363     0.08900
C1927       C  0.34425994  0.60422390  0.90614518     0.09300
C1928       C  0.35283013  0.58582780  0.92441033    -0.18000
C1929       C  0.33084653  0.55496220  0.93035188    -0.28400
C1930       C  0.29898355  0.04175020  0.92059573     0.17600
C1931       C  0.29819239  0.61006527  0.89297266     0.11600
C1932       C  0.36870434  0.63715241  0.90068520    -0.12800
H1933       H  0.37653140  0.59584895  0.93512597     0.11900
C1934       C  0.27369624  0.00891881  0.92582857    -0.23600
H1935       H  0.26678813  0.05198168  0.89644647     0.07500
C1936       C  0.27133790  0.59941423  0.87035517     0.03800
C1937       C  0.24282087  0.58997548  0.88753969    -0.20800
C1938       C  0.24192402  0.59337737  0.92616779    -0.13100
C1939       C  0.27052672  0.61388783  0.94510599     0.12500
C1940       C  0.29873535  0.62330028  0.92710541    -0.23600
C1941       C  0.27219303  0.59326016  0.82982734    -0.06600
H1942       H  0.22123300  0.57722053  0.87155837     0.14100
C1943       C  0.27224128  0.62353372  0.98494937    -0.16800
H1944       H  0.32031816  0.63493158  0.94325248     0.08400
H1945       H  0.27953461  0.99394677  0.91094012     0.06300
H1946       H  0.25062500  0.00375923  0.91498883     0.07500
H1947       H  0.27117045  0.00346107  0.95577549     0.06500
H1948       H  0.37803735  0.64850541  0.92798583     0.01400
H1949       H  0.35923879  0.64914693  0.88544163     0.01900
H1950       H  0.38818678  0.63907645  0.88430540     0.05400
H1951       H  0.24885045  0.58371543  0.81632368     0.04400
H1952       H  0.28121150  0.08058861  0.83350871    -0.01400
H1953       H  0.28892056  0.61481545  0.81602117     0.00100
H1954       H  0.29636949  0.64172508  0.99324945     0.03700
H1955       H  0.26525966  0.60413937  0.00359365     0.05700
H1956       H  0.25689701  0.63258236  0.98897991     0.06500
C1957       C  0.11755504  0.82791859  0.09366941    -0.23100
C1958       C  0.11572210  0.80509718  0.07080828     0.08900
C1959       C  0.10113104  0.79962999  0.03518338     0.09300
C1960       C  0.08831866  0.81651206  0.02415535    -0.18000
C1961       C  0.08775640  0.83716825  0.04826804    -0.28400
C1962       C  0.10335045  0.84384367  0.08285642     0.17600
C1963       C  0.12066367  0.78202576  0.08775297     0.11600
C1964       C  0.09550276  0.77388832  0.00997279    -0.12800
H1965       H  0.07613613  0.81165350  0.99763649     0.11900
C1966       C  0.10461204  0.86738586  0.10830672    -0.23600
H1967       H  0.12814059  0.83171161  0.12105226     0.07500
C1968       C  0.13776383  0.77168178  0.06928424     0.03800
C1969       C  0.12453388  0.74032139  0.06593505    -0.20800
C1970       C  0.09546829  0.72014725  0.08211251    -0.13100
C1971       C  0.08480667  0.73138941  0.11035419     0.12500
C1972       C  0.59541530  0.75811200  0.11758481    -0.23600
C1973       C  0.16800886  0.79353178  0.05055546    -0.06600
H1974       H  0.13449297  0.73176704  0.04670350     0.14100
C1975       C  0.55877133  0.70653056  0.14201949    -0.16800
H1976       H  0.58301051  0.76578117  0.13408039     0.08400
H1977       H  0.11631434  0.88962952  0.09429357     0.06300
H1978       H  0.60727763  0.85932111  0.14267666     0.07500
H1979       H  0.08062690  0.86092743  0.11599598     0.06500
H1980       H  0.08167507  0.75206588  0.02456067     0.01400
H1981       H  0.11787360  0.77704756  0.00065329     0.01900
H1982       H  0.08203344  0.77225766  0.98454645     0.05400
H1983       H  0.17743539  0.78147725  0.03551453     0.04400
H1984       H  0.18556738  0.80855548  0.07184313    -0.01400
H1985       H  0.16486925  0.80786241  0.03056604     0.00100
H1986       H  0.56365751  0.71687237  0.17018382     0.03700
H1987       H  0.55724689  0.68458511  0.14495283     0.05700
H1988       H  0.53613090  0.70276677  0.13164554     0.06500
C1989       C  0.27521326  0.89490265  0.26840259    -0.23100
C1990       C  0.24254686  0.88027647  0.26760113     0.08900
C1991       C  0.22382635  0.84845423  0.26768446     0.09300
C1992       C  0.23836130  0.83205846  0.27384071    -0.18000
C1993       C  0.27104587  0.84718449  0.27829071    -0.28400
C1994       C  0.28978938  0.87887097  0.27393662     0.17600
C1995       C  0.23068025  0.90008065  0.27540406     0.11600
C1996       C  0.18902172  0.83217947  0.26130813    -0.12800
H1997       H  0.22428334  0.80762032  0.27609459     0.11900
C1998       C  0.32501130  0.89642820  0.27829899    -0.23600
H1999       H  0.28939949  0.91945538  0.26798392     0.07500
C2000       C  0.22912016  0.90651441  0.31305750     0.03800
C2001       C  0.24112865  0.93652211  0.32402029    -0.20800
C2002       C  0.25653114  0.96021200  0.29876377    -0.13100
C2003       C  0.25230213  0.95288214  0.26019478     0.12500
C2004       C  0.23803934  0.92247485  0.24912021    -0.23600
C2005       C  0.21926562  0.88271111  0.34245616    -0.06600
H2006       H  0.23793351  0.44046853  0.35332253     0.14100
C2007       C  0.26430250  0.97648510  0.23029163    -0.16800
H2008       H  0.23812667  0.91704240  0.22011599     0.08400
H2009       H  0.33170936  0.89186093  0.30577099     0.06300
H2010       H  0.33538592  0.92125696  0.27642298     0.07500
H2011       H  0.33537103  0.88993733  0.25599005     0.06500
H2012       H  0.18406035  0.83836949  0.23381912     0.01400
H2013       H  0.17817806  0.83862317  0.28284169     0.01900
H2014       H  0.17794861  0.80721457  0.26187014     0.05400
H2015       H  0.22074313  0.89207044  0.37057821     0.04400
H2016       H  0.23462831  0.87339258  0.34238237    -0.01400
H2017       H  0.19465488  0.86419172  0.33758305     0.00100
H2018       H  0.29012526  0.98843400  0.22855888     0.03700
H2019       H  0.25698927  0.99283721  0.23575971     0.05700
H2020       H  0.25504527  0.96613295  0.20253251     0.06500
C2021       C  0.96343412  0.53362168  0.41142911    -0.23100
C2022       C  0.98826684  0.55000166  0.43668115     0.08900
C2023       C  0.98654665  0.56995719  0.46162339     0.09300
C2024       C  0.96732560  0.58104135  0.45224775    -0.18000
C2025       C  0.44962634  0.57192946  0.42486073    -0.28400
C2026       C  0.44369930  0.54394976  0.41086452     0.17600
C2027       C  0.01947241  0.56047174  0.42167449     0.11600
C2028       C  0.00890283  0.58323803  0.49417192    -0.12800
H2029       H  0.97009849  0.60032806  0.46742836     0.11900
C2030       C  0.41853941  0.52579017  0.38224366    -0.23600
H2031       H  0.96308376  0.51647001  0.39392887     0.07500
C2032       C  0.03727324  0.54761743  0.43042254     0.03800
C2033       C  0.06736735  0.56049341  0.41545249    -0.20800
C2034       C  0.07937279  0.58564907  0.39204232    -0.13100
C2035       C  0.06110927  0.59794262  0.38276003     0.12500
C2036       C  0.03146761  0.58515666  0.39762925    -0.23600
C2037       C  0.02467993  0.52085414  0.45564045    -0.06600
H2038       H  0.08172261  0.55136789  0.42252170     0.14100
C2039       C  0.07219892  0.62484381  0.35771053    -0.16800
H2040       H  0.01756684  0.59485145  0.39075420     0.08400
H2041       H  0.40285930  0.50238799  0.39238004     0.06300
H2042       H  0.42933715  0.52488942  0.35606143     0.07500
H2043       H  0.40395724  0.53556706  0.37667560     0.06500
H2044       H  0.03346843  0.59569285  0.48464977     0.01400
H2045       H  0.00527166  0.56474453  0.51277180     0.01900
H2046       H  0.00516548  0.59919228  0.51039777     0.05400
H2047       H  0.04160738  0.51354899  0.45959723     0.04400
H2048       H  0.00269977  0.50155674  0.44355715    -0.01400
H2049       H  0.01975888  0.52683639  0.48317410     0.00100
H2050       H  0.05575012  0.61829285  0.33374887     0.03700
H2051       H  0.09586483  0.63367056  0.34657788     0.05700
H2052       H  0.07266909  0.64352378  0.37326652     0.06500
Zr2053     Zr  0.91692378  0.05251564  0.23402534     2.17500
O2054       O  0.89122231  0.00620849  0.27018277    -0.52000
O2055       O  0.94811370  0.08476403  0.28561680    -0.75200
O2056       O  0.94708632  0.02736850  0.23634176    -0.81900
O2057       O  0.84567043  0.05890787  0.24784203    -0.83700
O2058       O  0.98055398  0.04677536  0.18806887    -0.79300
O2059       O  0.87572498  0.04377006  0.27637506    -0.91000
O2060       O  0.95794932  0.13194654  0.27486282    -0.76900
O2061       O  0.96486368  0.09341341  0.21083421    -0.86400
O2062       O  0.91048197  0.09466327  0.22987857    -0.86100
O2063       O  0.92120162  0.03552802  0.17377815    -0.72900
O2064       O  0.87225892  0.03746469  0.19412175    -0.85000
Zr2065     Zr  0.92007758  0.10513570  0.10484654     2.26400
Zr2066     Zr  0.96857824  0.07719901  0.15004289     2.06300
Zr2067     Zr  0.86786209  0.08077180  0.18863269     2.10000
Zr2068     Zr  0.95820026  0.13543752  0.20751410     1.78800
O2069       O  0.81191765  0.04590539  0.17824010    -0.93800
O2070       O  0.01326391  0.15775339  0.22417169    -0.41600
O2071       O  0.91550519  0.12218902  0.16511989    -0.78200
O2072       O  0.96399054  0.12056813  0.14671344    -0.96900
O2073       O  0.92536189  0.06230684  0.10856213    -0.90200
O2074       O  0.87215374  0.06433036  0.12849958    -0.93100
C2075       C  0.95444154  0.11093212  0.29657815     1.00700
C2076       C  0.85230580  0.04721233  0.27482616     1.13600
C2077       C  0.96912208  0.02953922  0.21614600     1.04400
O2078       O  0.52556177  0.11192830  0.16990646    -0.95200
O2079       O  0.99636635  0.10600856  0.09661938    -0.91000
O2080       O  0.96848097  0.12436573  0.07035789    -0.84100
C2081       C  0.99267208  0.12218192  0.07304726     1.11000
O2082       O  0.85512256  0.47406121  0.16198116    -0.97200
Zr2083     Zr  0.87793254  0.02201289  0.13390013     1.88900
O2084       O  0.88812809  0.07135134  0.05311927    -0.73800
O2085       O  0.97702732  0.04371199  0.11148210    -0.53100
O2086       O  0.89300856  0.98862961  0.10713892    -0.97800
O2087       O  0.82098922  0.99446324  0.12921346    -0.55000
O2088       O  0.86928661  0.02239598  0.06863773    -0.74400
C2089       C  0.87352700  0.04274450  0.04564072     0.98000
O2090       O  0.93641270  0.14421814  0.05800029    -0.63200
O2091       O  0.86116654  0.11859884  0.21957522    -0.58000
O2092       O  0.89413900  0.13410835  0.10930588    -0.94700
O2093       O  0.85253174  0.10610822  0.14608984    -0.93100
O2094       O  0.94335092  0.17051466  0.22879859    -0.93400
O2095       O  0.98981204  0.18636998  0.18266372    -0.92200
C2096       C  0.86819306  0.12788594  0.12372190     1.16800
H2097       H  0.90538405  0.09974113  0.25335949     0.32800
H2098       H  0.98286458  0.13786640  0.13741647     0.43600
H2099       H  0.85443163  0.05988078  0.11298461     0.37100
H2100       H  0.92203188  0.01746937  0.17493735     0.33600
H2101       H  0.01362487  0.14400706  0.24276436     0.25400
H2102       H  0.96851805  0.04401108  0.08674078     0.31400
H2103       H  0.90627073  0.99988017  0.08587216     0.37300
H2104       H  0.92769203  0.16861759  0.21035262     0.31700
H2105       H  0.83854475  0.10801242  0.22489319     0.30600
H2106       H  0.80190557  0.05440139  0.19311645     0.32300
H2107       H  0.81939951  0.51047384  0.11299163     0.31300
H2108       H  0.00279747  0.19943647  0.20370492     0.35200
H2109       H  0.91700503  0.14056777  0.04573418     0.28000
H2110       H  0.90718200  0.00813442  0.28814279     0.32200
H2111       H  0.86521183  0.47695437  0.18662825     0.35100
H2112       H  0.87147867  0.12188920  0.24414027     0.27700
H2113       H  0.94492865  0.16353222  0.07190267     0.40500
H2114       H  0.53641084  0.10477453  0.15420817     0.30600
H2115       H  0.02269433  0.15486951  0.20189379     0.38200
H2116       H  0.81424532  0.99795279  0.15335984     0.30100
H2117       H  0.99996680  0.05467092  0.10821342     0.30100
H2118       H  0.88767942  0.98988766  0.25280482     0.30400
C2119       C  0.94621350  0.09392259  0.39626073     0.79600
N2120       N  0.95046375  0.11983896  0.41090264    -0.78700
C2121       C  0.95725911  0.14368781  0.38907268     0.82000
N2122       N  0.95999634  0.14181128  0.35184078    -0.78700
C2123       C  0.95535649  0.11564326  0.33681311     0.82100
N2124       N  0.94879022  0.09214842  0.35917060    -0.80400
C2125       C  0.77901524  0.98698681  0.31127526     0.79600
N2126       N  0.80184417  0.00629024  0.28872576    -0.78700
C2127       C  0.82788297  0.03135039  0.30179756     0.82000
N2128       N  0.83169659  0.03787501  0.33888044    -0.78700
C2129       C  0.80834689  0.01885123  0.36213581     0.82100
N2130       N  0.78268120  0.99330964  0.34814834    -0.80400
C2131       C  0.57235501  0.19445909  0.06169866     0.79600
N2132       N  0.54693113  0.17078404  0.07716099    -0.78700
C2133       C  0.52296045  0.14931131  0.05594594     0.82000
N2134       N  0.52430771  0.15127243  0.01830691    -0.78700
C2135       C  0.55036195  0.17461248  0.00242224     0.82100
N2136       N  0.57394806  0.19602101  0.02428120    -0.80400
C2137       C  0.83778114  0.03733996  0.95356964     0.79600
N2138       N  0.85255113  0.04846829  0.98678211    -0.78700
C2139       C  0.85975092  0.03174883  0.00853902     0.82000
N2140       N  0.85288581  0.00399946  0.99652458    -0.78700
C2141       C  0.83805011  0.99261918  0.96343606     0.82100
N2142       N  0.83070225  0.00948013  0.94205119    -0.80400
Zr2143     Zr  0.71791231  0.24957534  0.43168702     2.17500
O2144       O  0.68555915  0.24281787  0.37723594    -0.52000
O2145       O  0.75544729  0.27728235  0.38282731    -0.75200
O2146       O  0.69539106  0.28234485  0.43346522    -0.81900
O2147       O  0.70389119  0.16839328  0.42537932    -0.83700
O2148       O  0.72159771  0.31770383  0.47889996    -0.79300
O2149       O  0.68642218  0.19813071  0.40399705    -0.91000
O2150       O  0.80506208  0.29016809  0.39691329    -0.76900
O2151       O  0.76340258  0.29295186  0.45791367    -0.86400
O2152       O  0.75810700  0.23799468  0.43574163    -0.86100
O2153       O  0.70171679  0.25659735  0.49161380    -0.72900
O2154       O  0.69905183  0.20588533  0.47011407    -0.85000
Zr2155     Zr  0.76803351  0.24493206  0.56397405     2.26400
Zr2156     Zr  0.74801560  0.29950234  0.51792390     2.06300
Zr2157     Zr  0.74012164  0.19566397  0.47624315     2.10000
Zr2158     Zr  0.80295679  0.28096142  0.46310851     1.78800
O2159       O  0.70857404  0.14144466  0.48761032    -0.93800
O2160       O  0.83395853  0.33564592  0.45528218    -0.41600
O2161       O  0.78513023  0.23877761  0.50416244    -0.78200
O2162       O  0.78871568  0.28860689  0.52366861    -0.96900
O2163       O  0.72810060  0.25653382  0.55684172    -0.90200
O2164       O  0.72314475  0.20106062  0.53601629    -0.93100
C2165       C  0.78440297  0.28893857  0.37472944     1.00700
C2166       C  0.68615352  0.17316862  0.40461368     1.13600
C2167       C  0.70149790  0.30623116  0.45208816     1.04400
O2168       O  0.78815301  0.35221363  0.50686909    -0.95200
O2169       O  0.77396559  0.32132623  0.57671564    -0.91000
O2170       O  0.79287154  0.29317844  0.59937302    -0.84100
C2171       C  0.79076129  0.31683295  0.59947199     1.11000
O2172       O  0.63812101  0.20882845  0.49805883    -0.97200
Zr2173     Zr  0.68363097  0.21322366  0.52915438     1.88900
O2174       O  0.72725963  0.21345872  0.60914549    -0.73800
O2175       O  0.71816505  0.31271721  0.55765135    -0.53100
O2176       O  0.63707860  0.20156210  0.56332497    -0.97800
O2177       O  0.65829034  0.15824203  0.52956777    -0.55000
O2178       O  0.69739284  0.23050353  0.59222388    -0.74400
C2179       C  0.70227109  0.21388846  0.61300122     0.98000
O2180       O  0.79969512  0.25202206  0.61919050    -0.63200
O2181       O  0.77340027  0.18976810  0.43292540    -0.58000
O2182       O  0.79355512  0.21488572  0.56078191    -0.94700
O2183       O  0.76885137  0.17972891  0.51484379    -0.93100
O2184       O  0.83226874  0.25933688  0.43986683    -0.93400
O2185       O  0.85610842  0.30660666  0.48846199    -0.89800
C2186       C  0.78840133  0.19131929  0.54217649     1.16800
H2187       H  0.76251903  0.23313545  0.41162240     0.32800
H2188       H  0.80752379  0.30592461  0.53429857     0.43600
H2189       H  0.71627129  0.18304367  0.55042730     0.37100
H2190       H  0.68469697  0.26000379  0.49138855     0.33600
H2191       H  0.82239441  0.34003865  0.43659417     0.25400
H2192       H  0.72423490  0.33340449  0.55023309     0.31400
H2193       H  0.62276243  0.17929857  0.56204585     0.37300
H2194       H  0.83451616  0.24873362  0.46124626     0.31700
H2195       H  0.77296298  0.17143359  0.44116137     0.30600
H2196       H  0.71996154  0.13301373  0.47562536     0.32300
H2197       H  0.66544251  0.15323925  0.50680112     0.31300
H2198       H  0.85387045  0.29802706  0.51348036     0.35200
H2199       H  0.79042488  0.23161258  0.62997592     0.28000
H2200       H  0.69447372  0.26326014  0.36665895     0.32200
H2201       H  0.62971107  0.19056799  0.48205885     0.35100
H2202       H  0.76163790  0.18365059  0.40907911     0.27700
H2203       H  0.82041916  0.25718956  0.61014255     0.40500
H2204       H  0.78672355  0.35499682  0.47996804     0.30600
H2205       H  0.83121162  0.34379821  0.47867880     0.38200
H2206       H  0.63589313  0.15030403  0.52438255     0.30100
H2207       H  0.69617906  0.29957377  0.54899527     0.30100
H2208       H  0.66494004  0.23744905  0.38690398     0.30400
Zr2209     Zr  0.85935310  0.45140410  0.76789002     2.17500
O2210       O  0.88227763  0.48437518  0.71464422    -0.52000
O2211       O  0.84891357  0.41600760  0.71697542    -0.75200
O2212       O  0.91781758  0.47684075  0.76682427    -0.81900
O2213       O  0.78212367  0.45087114  0.76365537    -0.83700
O2214       O  0.93100784  0.45530504  0.81230801    -0.79300
O2215       O  0.83165815  0.47470420  0.74117077    -0.91000
O2216       O  0.81588880  0.36699638  0.73298144    -0.76900
O2217       O  0.86308800  0.41136467  0.79402236    -0.86400
O2218       O  0.80704546  0.40850467  0.77364556    -0.86100
O2219       O  0.88537258  0.47105543  0.82706208    -0.72900
O2220       O  0.83157633  0.46603835  0.80804116    -0.85000
Zr2221     Zr  0.80881295  0.40223394  0.90185361     2.26400
Zr2222     Zr  0.88728414  0.43003307  0.85373302     2.06300
Zr2223     Zr  0.78009339  0.42202739  0.81580763     2.10000
Zr2224     Zr  0.81096687  0.36896434  0.79996931     1.78800
O2225       O  0.75184756  0.44768541  0.82510728    -0.93800
O2226       O  0.83912160  0.34305516  0.79257340    -0.41600
O2227       O  0.78358289  0.38218404  0.84246193    -0.78200
O2228       O  0.83527012  0.38636269  0.86018091    -0.96900
O2229       O  0.86102921  0.44515367  0.89435690    -0.90200
O2230       O  0.80466821  0.44218392  0.87464793    -0.93100
C2231       C  0.83228293  0.38751579  0.70927624     1.00700
C2232       C  0.80385211  0.47007734  0.74290628     1.13600
C2233       C  0.93795402  0.47311768  0.78478873     1.04400
O2234       O  0.90954640  0.39889888  0.84449071    -0.95200
O2235       O  0.88871540  0.40677743  0.91063002    -0.91000
O2236       O  0.84041952  0.38620221  0.93581304    -0.84100
C2237       C  0.86794661  0.39025137  0.93423749     1.11000
O2238       O  0.90501670  0.03009221  0.83891856    -0.97200
Zr2239     Zr  0.85696017  0.48449730  0.86664841     1.88900
O2240       O  0.81374990  0.44007135  0.94737655    -0.73800
O2241       O  0.93042952  0.46877730  0.89173897    -0.53100
O2242       O  0.88960557  0.53094163  0.90267012    -0.97800
O2243       O  0.82298948  0.50470896  0.86649524    -0.55000
O2244       O  0.86152366  0.47306122  0.92975375    -0.74400
C2245       C  0.83852666  0.46646365  0.95004402     0.98000
O2246       O  0.78086233  0.36722759  0.95210532    -0.63200
O2247       O  0.73791088  0.38388146  0.77623103    -0.58000
O2248       O  0.75044696  0.37193127  0.90079435    -0.94700
O2249       O  0.73660099  0.39409608  0.85707987    -0.93100
O2250       O  0.75706966  0.33581198  0.77844405    -0.93400
O2251       O  0.78479505  0.31817018  0.82502606    -0.92200
C2252       C  0.72991569  0.37536624  0.88350788     1.16800
H2253       H  0.79603018  0.40270715  0.75007765     0.32800
H2254       H  0.83618935  0.36977828  0.87051948     0.43600
H2255       H  0.79205686  0.44729507  0.88912081     0.37100
H2256       H  0.90614200  0.48872812  0.82528313     0.33600
H2257       H  0.85173847  0.35177990  0.77006462     0.25400
H2258       H  0.94824036  0.46633114  0.88664304     0.31400
H2259       H  0.88053153  0.04492488  0.89161565     0.37300
H2260       H  0.75644796  0.34255465  0.75302547     0.31700
H2261       H  0.72688080  0.36556321  0.79169460     0.30600
H2262       H  0.73248624  0.43614772  0.80983503     0.32300
H2263       H  0.80904834  0.99299262  0.84192417     0.31300
H2264       H  0.77971222  0.32071886  0.85065663     0.35200
H2265       H  0.78270875  0.34944626  0.94774570     0.28000
H2266       H  0.89453443  0.47725963  0.70182505     0.32200
H2267       H  0.89843271  0.03221942  0.81374963     0.35100
H2268       H  0.72299343  0.39069168  0.77371781     0.27700
H2269       H  0.79342159  0.37710767  0.97487476     0.40500
H2270       H  0.93111954  0.41113474  0.85479453     0.30600
H2271       H  0.85468849  0.35087116  0.81316567     0.38200
H2272       H  0.83555765  0.52476687  0.85479678     0.30100
H2273       H  0.93621675  0.48825653  0.88020194     0.30100
H2274       H  0.89806183  0.50452598  0.72505516     0.30400
C2275       C  0.85954245  0.39262966  0.61337516     0.79600
N2276       N  0.85687222  0.39923258  0.64898050    -0.78700
C2277       C  0.83312283  0.37863240  0.67048821     0.82000
N2278       N  0.81135146  0.35069671  0.65592813    -0.78700
C2279       C  0.81423767  0.34404820  0.62007289     0.82100
N2280       N  0.83816943  0.36499585  0.59968539    -0.80400
C2281       C  0.78427274  0.50985810  0.67338157     0.79600
N2282       N  0.79346763  0.49157916  0.68786478    -0.78700
C2283       C  0.79667841  0.49072902  0.72506648     0.82000
N2284       N  0.79032744  0.50759188  0.74743724    -0.78700
C2285       C  0.78735434  0.02930692  0.72971326     0.82100
N2286       N  0.78191629  0.02846196  0.69256747    -0.80400
C2287       C  0.87324573  0.36867749  0.95341021     0.79600
N2288       N  0.86496720  0.34320263  0.93383952    -0.78700
C2289       C  0.86869711  0.32140760  0.94795514     0.82000
N2290       N  0.88145114  0.32568831  0.98222303    -0.78700
C2291       C  0.89039682  0.35112520  0.00259967     0.82100
N2292       N  0.88605277  0.37299327  0.98830075    -0.80400
Zr2293     Zr  0.96729181  0.24810476  0.56432263     2.17500
O2294       O  0.94388423  0.26917115  0.60318543    -0.52000
O2295       O  0.97192905  0.22059221  0.61567419    -0.75200
O2296       O  0.90928502  0.21691068  0.56611143    -0.81900
O2297       O  0.54828749  0.32676158  0.57873313    -0.83700
O2298       O  0.89492836  0.18365655  0.51803282    -0.79300
O2299       O  0.50167286  0.29486902  0.60622840    -0.91000
O2300       O  0.50973125  0.21227583  0.60595681    -0.76900
O2301       O  0.96219117  0.20280135  0.54156225    -0.86400
O2302       O  0.52089586  0.26084603  0.56281514    -0.86100
O2303       O  0.94485029  0.24227721  0.50365243    -0.72900
O2304       O  0.49917242  0.29480946  0.52563127    -0.85000
Zr2305     Zr  0.52157249  0.24882469  0.43738595     2.26400
Zr2306     Zr  0.93998237  0.19693567  0.48074114     2.06300
Zr2307     Zr  0.55004757  0.30199514  0.52214232     2.10000
Zr2308     Zr  0.51560614  0.21577925  0.53951893     1.78800
O2309       O  0.57097793  0.35399899  0.50288063    -0.93800
O2310       O  0.98362577  0.15889375  0.55230174    -0.41600
O2311       O  0.54545045  0.25677598  0.49806020    -0.78200
O2312       O  0.99118201  0.20414000  0.47867711    -0.96900
O2313       O  0.96874755  0.23779117  0.43895089    -0.90200
O2314       O  0.52830865  0.29503159  0.46072208    -0.93100
C2315       C  0.99086906  0.21256534  0.62654966     1.00700
C2316       C  0.52853760  0.31948610  0.60491905     1.13600
C2317       C  0.88851993  0.19452030  0.54607156     1.04400
O2318       O  0.91044487  0.14295629  0.49378951    -0.95200
O2319       O  0.94235080  0.16779982  0.43029282    -0.91000
O2320       O  0.99048634  0.19574199  0.40447807    -0.84100
C2321       C  0.96334013  0.17134286  0.40759679     1.11000
O2322       O  0.95158597  0.30995392  0.48869606    -0.97200
Zr2323     Zr  0.97539573  0.28352186  0.46338895     1.88900
O2324       O  0.51292503  0.27230346  0.38361015    -0.73800
O2325       O  0.89929313  0.19249542  0.43919385    -0.53100
O2326       O  0.92457199  0.27037266  0.43827906    -0.97800
O2327       O  0.51301135  0.34084602  0.45168115    -0.55000
O2328       O  0.97797417  0.28410669  0.39716230    -0.74400
C2329       C  0.49513981  0.28225513  0.37498136     0.98000
O2330       O  0.54566575  0.23611173  0.38808920    -0.63200
O2331       O  0.59425236  0.31699882  0.56415419    -0.58000
O2332       O  0.57955104  0.27825603  0.43863563    -0.94700
O2333       O  0.59469859  0.31146685  0.48693273    -0.93100
O2334       O  0.56743628  0.23376624  0.56568135    -0.93400
O2335       O  0.53933098  0.18920571  0.51436389    -0.92200
C2336       C  0.60056499  0.30044400  0.45866232     1.16800
H2337       H  0.53116189  0.26618762  0.58684092     0.32800
H2338       H  0.99026802  0.18603513  0.47053968     0.43600
H2339       H  0.54183717  0.31172232  0.44485596     0.37100
H2340       H  0.92478921  0.24043695  0.50449456     0.33600
H2341       H  0.96534824  0.15583947  0.56616366     0.25400
H2342       H  0.90770102  0.19461150  0.41399508     0.31400
H2343       H  0.91767313  0.25223447  0.42252920     0.37300
H2344       H  0.58219845  0.24724136  0.54665369     0.31700
H2345       H  0.60117180  0.30280029  0.55876008     0.30600
H2346       H  0.58370150  0.35669069  0.48086636     0.32300
H2347       H  0.01141961  0.34781204  0.47491912     0.31300
H2348       H  0.55388984  0.20294151  0.49534867     0.35200
H2349       H  0.55954728  0.25517150  0.37477573     0.28000
H2350       H  0.93022702  0.25307249  0.62073719     0.32200
H2351       H  0.94392277  0.30077298  0.51327074     0.35100
H2352       H  0.61125922  0.33681172  0.55498660     0.27700
H2353       H  0.55980565  0.23084537  0.40041266     0.40500
H2354       H  0.92639228  0.13744536  0.49637127     0.30600
H2355       H  0.97481892  0.14885817  0.52802770     0.38200
H2356       H  0.50034243  0.34688985  0.43735536     0.30100
H2357       H  0.88215005  0.17097620  0.44062217     0.30100
H2358       H  0.92951304  0.27159789  0.58672227     0.30400
Zr2359     Zr  0.92657275  0.35461013  0.23135706     2.17500
O2360       O  0.94063569  0.37695233  0.29345966    -0.52000
O2361       O  0.87898621  0.33929493  0.26738794    -0.75200
O2362       O  0.95215036  0.41087225  0.22900558    -0.81900
O2363       O  0.92047625  0.28547141  0.26227128    -0.83700
O2364       O  0.94732075  0.42407254  0.17016655    -0.79300
O2365       O  0.95383698  0.33538410  0.26834055    -0.91000
O2366       O  0.83716932  0.31006690  0.22940447    -0.76900
O2367       O  0.89256900  0.35479561  0.18438194    -0.86400
O2368       O  0.88772842  0.30240245  0.21807324    -0.86100
O2369       O  0.95835644  0.37881448  0.17741297    -0.72900
O2370       O  0.95305137  0.33029880  0.20919221    -0.85000
Zr2371     Zr  0.91368130  0.30284740  0.09673283     2.26400
Zr2372     Zr  0.92378922  0.37824744  0.13051747     2.06300
Zr2373     Zr  0.91419183  0.27851521  0.19559459     2.10000
Zr2374     Zr  0.85468291  0.30282701  0.17106410     1.78800
O2375       O  0.95521523  0.26710398  0.19939581    -0.93800
O2376       O  0.82544968  0.32632429  0.15390678    -0.41600
O2377       O  0.88055027  0.27859029  0.14874738    -0.78200
O2378       O  0.88514173  0.32580417  0.11729831    -0.96900
O2379       O  0.95139998  0.35494765  0.10954308    -0.90200
O2380       O  0.94699080  0.30237816  0.14347493    -0.93100
C2381       C  0.84935519  0.32344981  0.26027747     1.00700
C2382       C  0.94538818  0.30794965  0.27603659     1.13600
C2383       C  0.95675430  0.43074074  0.20423594     1.04400
O2384       O  0.88557708  0.39330051  0.12816731    -0.95200
O2385       O  0.90834530  0.37289775  0.06432580    -0.91000
O2386       O  0.90311980  0.32823961  0.04819759    -0.84100
C2387       C  0.90190650  0.35164462  0.04071670     1.11000
O2388       O  0.51780193  0.38095175  0.20784530    -0.97200
Zr2389     Zr  0.98427290  0.35450781  0.15689017     1.88900
O2390       O  0.96230130  0.31492629  0.06477892    -0.73800
O2391       O  0.96321076  0.42026704  0.09411096    -0.53100
O2392       O  0.02447609  0.40563653  0.13898886    -0.97800
O2393       O  0.01576130  0.33232484  0.16731896    -0.55000
O2394       O  0.00373051  0.35094395  0.09875884    -0.74400
C2395       C  0.99185607  0.33396571  0.07026197     0.98000
O2396       O  0.89110046  0.27175613  0.04081648    -0.63200
O2397       O  0.88013397  0.23019094  0.22567030    -0.58000
O2398       O  0.88522308  0.24670455  0.09797483    -0.94700
O2399       O  0.88656951  0.23314347  0.15744560    -0.93100
O2400       O  0.81648085  0.25244702  0.19320342    -0.93400
O2401       O  0.81093069  0.27158986  0.12892469    -0.92200
C2402       C  0.87853778  0.22674619  0.12325024     1.16800
H2403       H  0.87598033  0.29184149  0.23971167     0.32800
H2404       H  0.87011434  0.32380838  0.09888559     0.43600
H2405       H  0.95641822  0.29146097  0.13494395     0.37100
H2406       H  0.97613826  0.39886063  0.18220136     0.33600
H2407       H  0.83450935  0.34486409  0.16949648     0.25400
H2408       H  0.95653758  0.43505430  0.09358296     0.31400
H2409       H  0.54693434  0.39607784  0.14003218     0.37300
H2410       H  0.82902162  0.24566190  0.20634078     0.31700
H2411       H  0.89394736  0.22721690  0.24244187     0.30600
H2412       H  0.94661879  0.24902280  0.21525567     0.32300
H2413       H  0.53344228  0.34251101  0.16566073     0.31300
H2414       H  0.82004729  0.26576838  0.10888026     0.35200
H2415       H  0.87205115  0.27206809  0.03478844     0.28000
H2416       H  0.93127254  0.38947827  0.29563156     0.32200
H2417       H  0.50395696  0.37707151  0.22906539     0.35100
H2418       H  0.86694860  0.23380216  0.24233948     0.27700
H2419       H  0.90588187  0.28328683  0.02078933     0.40500
H2420       H  0.89341152  0.40915648  0.10903094     0.30600
H2421       H  0.83210550  0.33383767  0.12847241     0.38200
H2422       H  0.00968434  0.31675380  0.14773783     0.30100
H2423       H  0.98238936  0.42997329  0.10986913     0.30100
H2424       H  0.96349904  0.39170706  0.29300745     0.30400
C2425       C  0.78454796  0.32964720  0.29200628     0.79600
N2426       N  0.80912000  0.33319607  0.27305041    -0.78700
C2427       C  0.82672236  0.32261261  0.28628733     0.82000
N2428       N  0.81932412  0.30771725  0.31939690    -0.78700
C2429       C  0.79393805  0.30368526  0.33835902     0.82100
N2430       N  0.77691346  0.31473269  0.32434789    -0.80400
C2431       C  0.99221843  0.28749043  0.33532616     0.79600
N2432       N  0.96967582  0.29317312  0.32479736    -0.78700
C2433       C  0.96917451  0.30222595  0.28973386     0.82000
N2434       N  0.99086080  0.30537164  0.26550947    -0.78700
C2435       C  0.51355623  0.29968497  0.27601525     0.82100
N2436       N  0.01406379  0.29102383  0.31066126    -0.80400
Zr2437     Zr  0.75181005  0.47262630  0.44383946     2.17500
O2438       O  0.76836887  0.44203631  0.41179061    -0.52000
O2439       O  0.72855877  0.47842231  0.38638716    -0.75200
O2440       O  0.71983327  0.41709508  0.44200644    -0.81900
O2441       O  0.81515267  0.04757042  0.41771507    -0.83700
O2442       O  0.68267028  0.40383522  0.48566574    -0.79300
O2443       O  0.80199885  0.00005496  0.42252274    -0.91000
O2444       O  0.71036486  0.50972450  0.39468043    -0.76900
O2445       O  0.70403748  0.46811754  0.46120712    -0.86400
O2446       O  0.75691735  0.01849189  0.43940150    -0.86100
O2447       O  0.74272725  0.45285132  0.50555100    -0.72900
O2448       O  0.79139752  0.99894964  0.48322519    -0.85000
Zr2449     Zr  0.74009479  0.02346032  0.56107812     2.26400
Zr2450     Zr  0.69494141  0.44835740  0.52259346     2.06300
Zr2451     Zr  0.79947701  0.04874341  0.48208236     2.10000
Zr2452     Zr  0.70979027  0.01422638  0.45713853     1.78800
O2453       O  0.85044709  0.05828820  0.50114676    -0.93800
O2454       O  0.65743304  0.48927575  0.44550897    -0.41600
O2455       O  0.75152418  0.04490614  0.50004150    -0.78200
O2456       O  0.70190546  0.49770151  0.52034065    -0.96900
O2457       O  0.73634853  0.47900713  0.56585494    -0.90200
O2458       O  0.78895879  0.02938897  0.54418760    -0.93100
C2459       C  0.71647309  0.49345790  0.37448150     1.00700
C2460       C  0.81062407  0.02320558  0.40272017     1.13600
C2461       C  0.69547519  0.39736455  0.45959922     1.04400
O2462       O  0.63938755  0.41874479  0.50667147    -0.95200
O2463       O  0.66398474  0.45331715  0.56955103    -0.91000
O2464       O  0.69272426  0.50150900  0.59258733    -0.84100
C2465       C  0.66780387  0.47494553  0.59056135     1.11000
O2466       O  0.80934090  0.45924678  0.52203829    -0.97200
Zr2467     Zr  0.78447357  0.48464624  0.54774806     1.88900
O2468       O  0.76515116  0.02159307  0.61829282    -0.73800
O2469       O  0.68917198  0.41258099  0.56994144    -0.53100
O2470       O  0.76615471  0.43683644  0.57912988    -0.97800
O2471       O  0.83646468  0.01108291  0.55466251    -0.55000
O2472       O  0.78572199  0.49380307  0.61322854    -0.74400
C2473       C  0.77736658  0.00694370  0.63041240     0.98000
O2474       O  0.72352849  0.04762028  0.60542333    -0.63200
O2475       O  0.83112544  0.09966718  0.45726186    -0.58000
O2476       O  0.76815291  0.07896008  0.55722368    -0.94700
O2477       O  0.80713483  0.09264913  0.51615164    -0.93100
O2478       O  0.73104152  0.06474293  0.43226361    -0.93400
O2479       O  0.67973336  0.03577232  0.47789961    -0.92200
C2480       C  0.79289662  0.09889524  0.54045725     1.16800
H2481       H  0.76173829  0.02727142  0.41511571     0.32800
H2482       H  0.68286494  0.49688726  0.52620948     0.43600
H2483       H  0.80568593  0.04292995  0.56105244     0.37100
H2484       H  0.74088535  0.43344858  0.50620223     0.33600
H2485       H  0.65537152  0.49669529  0.42108663     0.25400
H2486       H  0.66673828  0.39635144  0.56882972     0.31400
H2487       H  0.78292722  0.44119711  0.59734950     0.37300
H2488       H  0.74909679  0.06851663  0.41732292     0.31700
H2489       H  0.85045490  0.10133763  0.44823205     0.30600
H2490       H  0.86081549  0.05912439  0.47766265     0.32300
H2491       H  0.84430692  0.53213006  0.57616939     0.31300
H2492       H  0.69089395  0.04754931  0.50053769     0.35200
H2493       H  0.74259758  0.06291075  0.61922617     0.28000
H2494       H  0.77970109  0.43776834  0.43097864     0.32200
H2495       H  0.81980327  0.45590520  0.54319462     0.35100
H2496       H  0.81981051  0.09964224  0.43463675     0.27700
H2497       H  0.71693287  0.05933881  0.59061843     0.40500
H2498       H  0.63039541  0.40167223  0.52420429     0.30600
H2499       H  0.65225412  0.46838930  0.44052243     0.38200
H2500       H  0.84103778  0.00083051  0.57450168     0.30100
H2501       H  0.70012917  0.40295821  0.56004370     0.30100
H2502       H  0.78476140  0.45521442  0.39407846     0.30400
Zr2503     Zr  0.61395856  0.20246092  0.89906169     2.17500
O2504       O  0.66438917  0.23133002  0.93137616    -0.52000
O2505       O  0.58210095  0.19735688  0.95131586    -0.75200
O2506       O  0.63438817  0.25770576  0.90177672    -0.81900
O2507       O  0.61078176  0.12777585  0.91598176    -0.83700
O2508       O  0.61361308  0.26776113  0.85162996    -0.79300
O2509       O  0.62687230  0.17402467  0.94165702    -0.91000
O2510       O  0.53313940  0.15657685  0.94059498    -0.76900
O2511       O  0.56923012  0.20157784  0.87522482    -0.86400
O2512       O  0.57238415  0.15047793  0.89617238    -0.86100
O2513       O  0.62870567  0.22405764  0.83869299    -0.72900
O2514       O  0.63030451  0.17588645  0.86010777    -0.85000
Zr2515     Zr  0.55829950  0.14541948  0.77039074     2.26400
Zr2516     Zr  0.58315962  0.22196273  0.81423932     2.06300
Zr2517     Zr  0.58724493  0.12428371  0.85563119     2.10000
Zr2518     Zr  0.52797989  0.14961315  0.87314051     1.78800
O2519       O  0.62584054  0.11028857  0.84652266    -0.93800
O2520       O  0.50202119  0.17697160  0.88601036    -0.41600
O2521       O  0.54231992  0.12309576  0.83086833    -0.78200
O2522       O  0.54070007  0.16996693  0.81195883    -0.96900
O2523       O  0.60019399  0.19706819  0.77382484    -0.90200
O2524       O  0.60253283  0.14574590  0.79530147    -0.93100
C2525       C  0.55501121  0.17638248  0.96214515     1.00700
C2526       C  0.62368856  0.14779578  0.94191970     1.13600
C2527       C  0.63088912  0.27597515  0.88108284     1.04400
O2528       O  0.54958347  0.24065685  0.83077040    -0.95200
O2529       O  0.54896321  0.21422073  0.76184948    -0.91000
O2530       O  0.53143689  0.16709366  0.73835473    -0.84100
C2531       C  0.53184542  0.19201272  0.73965136     1.11000
O2532       O  0.69654187  0.22818396  0.82738769    -0.97200
Zr2533     Zr  0.64423003  0.19755011  0.79992286     1.88900
O2534       O  0.59464177  0.15399223  0.71967510    -0.73800
O2535       O  0.61409518  0.26295133  0.77135998    -0.53100
O2536       O  0.67438696  0.24748498  0.77213019    -0.97800
O2537       O  0.67455468  0.17361362  0.79465138    -0.55000
O2538       O  0.64484127  0.19005023  0.73487417    -0.74400
C2539       C  0.62387506  0.17155953  0.71201729     0.98000
O2540       O  0.52498354  0.11981888  0.71611653    -0.63200
O2541       O  0.55232764  0.07855784  0.89009422    -0.58000
O2542       O  0.53122695  0.08947524  0.77354862    -0.94700
O2543       O  0.55894146  0.08003925  0.81536766    -0.93100
O2544       O  0.49694642  0.09763820  0.89490898    -0.93400
O2545       O  0.97374552  0.12176151  0.84676284    -0.92200
C2546       C  0.53780593  0.07149576  0.78991887     1.16800
H2547       H  0.56812901  0.14099465  0.92008422     0.32800
H2548       H  0.52155358  0.16808908  0.80333520     0.43600
H2549       H  0.60785612  0.13389828  0.78002489     0.37100
H2550       H  0.64644394  0.24459316  0.83998334     0.33600
H2551       H  0.51567858  0.19275442  0.90449669     0.25400
H2552       H  0.60990361  0.25304211  0.74669877     0.31400
H2553       H  0.66035431  0.24767011  0.75285332     0.37300
H2554       H  0.49462373  0.09934456  0.92183176     0.31700
H2555       H  0.56591202  0.07192701  0.90074222     0.30600
H2556       H  0.62383131  0.10447253  0.82003304     0.32300
H2557       H  0.66366984  0.15758443  0.77545502     0.31300
H2558       H  0.96005447  0.11791926  0.86817367     0.35200
H2559       H  0.53180281  0.10647873  0.70627076     0.28000
H2560       H  0.66154507  0.24281873  0.95119836     0.32200
H2561       H  0.71118295  0.23346956  0.80663194     0.35100
H2562       H  0.54576491  0.08553702  0.91167422     0.27700
H2563       H  0.50372814  0.10588999  0.72571530     0.40500
H2564       H  0.55864358  0.26031762  0.81805364     0.30600
H2565       H  0.50433760  0.18829818  0.86307976     0.38200
H2566       H  0.67096995  0.16254758  0.81811422     0.30100
H2567       H  0.60361089  0.27452452  0.77031426     0.30100
H2568       H  0.67868233  0.24680115  0.91357492     0.30400
C2569       C  0.62725447  0.14272867  0.61979690     0.79600
N2570       N  0.65634887  0.16424549  0.60922277    -0.78700
C2571       C  0.67475479  0.18887179  0.63062042     0.82000
N2572       N  0.66378656  0.19210901  0.66345728    -0.78700
C2573       C  0.63473909  0.16996684  0.67497574     0.82100
N2574       N  0.61659665  0.14536653  0.65300358    -0.80400
C2575       C  0.50766738  0.19348114  0.71877909     0.79600
N2576       N  0.51190298  0.20361066  0.68327780    -0.78700
C2577       C  0.48866272  0.20510888  0.66565015     0.82000
N2578       N  0.96451954  0.20039195  0.68457493    -0.78700
C2579       C  0.96020158  0.19162570  0.72019923     0.82100
N2580       N  0.48022494  0.18426460  0.73590119    -0.80400
Zr2581     Zr  0.70091131  0.11492990  0.11051296     2.17500
O2582       O  0.73159162  0.15962871  0.07270293    -0.52000
O2583       O  0.69491874  0.08794675  0.05266352    -0.75200
O2584       O  0.75770064  0.13804104  0.11238013    -0.81900
O2585       O  0.62405404  0.10424538  0.08047133    -0.83700
O2586       O  0.76793283  0.11401855  0.15743750    -0.79300
O2587       O  0.67419534  0.13945416  0.08964871    -0.91000
O2588       O  0.66235900  0.03711187  0.05960159    -0.76900
O2589       O  0.70228669  0.07198820  0.12960784    -0.86400
O2590       O  0.64845988  0.07207779  0.10461175    -0.86100
O2591       O  0.72022999  0.12641213  0.17321892    -0.72900
O2592       O  0.66948421  0.12610174  0.14892171    -0.85000
Zr2593     Zr  0.63760095  0.04982902  0.22765463     2.26400
Zr2594     Zr  0.72049469  0.08269856  0.19258919     2.06300
Zr2595     Zr  0.61717048  0.08266877  0.14367029     2.10000
Zr2596     Zr  0.64984684  0.02961920  0.12457715     1.78800
O2597       O  0.60621961  0.12164553  0.15925891    -0.93800
O2598       O  0.67946142  0.00545931  0.11420614    -0.41600
O2599       O  0.61806478  0.03909900  0.16434767    -0.78200
O2600       O  0.66830365  0.03910521  0.18705859    -0.96900
O2601       O  0.68961424  0.09276344  0.23314794    -0.90200
O2602       O  0.63527383  0.09232416  0.20715675    -0.93100
C2603       C  0.67961257  0.06056090  0.04013485     1.00700
C2604       C  0.65024215  0.12604410  0.06826316     1.13600
C2605       C  0.77629900  0.13288604  0.13068848     1.04400
O2606       O  0.74727886  0.05637717  0.17869659    -0.95200
O2607       O  0.71240580  0.04620612  0.23949957    -0.91000
O2608       O  0.66229899  0.02535840  0.25903526    -0.84100
C2609       C  0.68897655  0.02742781  0.25890384     1.11000
O2610       O  0.71854346  0.18794324  0.19384509    -0.97200
Zr2611     Zr  0.68754372  0.13504986  0.21198898     1.88900
O2612       O  0.63742273  0.07823224  0.28260488    -0.73800
O2613       O  0.75775929  0.11385435  0.24137191    -0.53100
O2614       O  0.73655422  0.16546769  0.24650711    -0.97800
O2615       O  0.65922786  0.16093208  0.21918062    -0.55000
O2616       O  0.67337205  0.12835758  0.27606138    -0.74400
C2617       C  0.65306680  0.10582628  0.29474966     0.98000
O2618       O  0.60942107  0.00845051  0.27123405    -0.63200
O2619       O  0.56770174  0.05491081  0.10931912    -0.58000
O2620       O  0.58053624  0.02123574  0.21891327    -0.94700
O2621       O  0.57025081  0.04852025  0.17869597    -0.93100
O2622       O  0.60010368  0.99895382  0.09156611    -0.93400
O2623       O  0.61994479  0.47681499  0.14810267    -0.92200
C2624       C  0.56177569  0.02730795  0.20253813     1.16800
H2625       H  0.64031310  0.06852525  0.07955896     0.32800
H2626       H  0.66753435  0.02079296  0.19356390     0.43600
H2627       H  0.62108264  0.09491590  0.22213418     0.37100
H2628       H  0.74096369  0.14436399  0.17485026     0.33600
H2629       H  0.69876892  0.02092522  0.10175068     0.25400
H2630       H  0.74707075  0.10444229  0.26480783     0.31400
H2631       H  0.73666909  0.15150133  0.26494358     0.37300
H2632       H  0.60302443  0.98520400  0.07551150     0.31700
H2633       H  0.56373224  0.07056012  0.10040821     0.30600
H2634       H  0.61355873  0.13533069  0.13773557     0.32300
H2635       H  0.67199473  0.17765221  0.23704455     0.31300
H2636       H  0.61896476  0.46408260  0.12704485     0.35200
H2637       H  0.59430477  0.01213251  0.28367419     0.28000
H2638       H  0.74475032  0.15543756  0.05673586     0.32200
H2639       H  0.72186870  0.18722645  0.16698412     0.35100
H2640       H  0.57240468  0.04727429  0.08675079     0.27700
H2641       H  0.59648383  0.98990092  0.25598694     0.40500
H2642       H  0.74085006  0.04889018  0.15292364     0.30600
H2643       H  0.68663290  0.00362151  0.13915098     0.38200
H2644       H  0.64014149  0.14681574  0.23300005     0.30100
H2645       H  0.77458172  0.10945990  0.23981153     0.30100
H2646       H  0.74629363  0.17627607  0.08968955     0.30400
C2647       C  0.61103477  0.10394996  0.37910610     0.79600
N2648       N  0.61782258  0.09574138  0.34651361    -0.78700
C2649       C  0.64682097  0.11291418  0.33204197     0.82000
N2650       N  0.66895510  0.13867230  0.35027768    -0.78700
C2651       C  0.66209160  0.14702032  0.38280866     0.82100
N2652       N  0.63308459  0.12962573  0.39695135    -0.80400
C2653       C  0.69214258  0.00469952  0.27888853     0.79600
N2654       N  0.68588035  0.97914055  0.26049859    -0.78700
C2655       C  0.69043549  0.46070484  0.28132457     0.82000
N2656       N  0.70155127  0.46599013  0.31653644    -0.78700
C2657       C  0.70659214  0.98841439  0.33185944     0.82100
N2658       N  0.70217886  0.00921592  0.31485942    -0.80400
C2659       C  0.65568429  0.13410383  0.02840203     0.79600
N2660       N  0.68459326  0.14297530  0.01552577    -0.78700
C2661       C  0.69213449  0.15092710  0.97974029     0.82000
N2662       N  0.67102964  0.15119998  0.95708293    -0.78700
C2663       C  0.64244581  0.14319643  0.96897324     0.82100
N2664       N  0.63421998  0.13445340  0.00498183    -0.80400
Zr2665     Zr  0.55172707  0.42240717  0.77341594     2.17500
O2666       O  0.50712954  0.40794754  0.73256703    -0.52000
O2667       O  0.57898176  0.44219584  0.71591340    -0.75200
O2668       O  0.53182729  0.45644964  0.77464305    -0.81900
O2669       O  0.55737168  0.35463459  0.74766911    -0.83700
O2670       O  0.56203670  0.49445488  0.81559540    -0.79300
O2671       O  0.52426961  0.37022316  0.75263734    -0.91000
O2672       O  0.63060383  0.45915429  0.72386400    -0.76900
O2673       O  0.59896233  0.46766013  0.79154765    -0.86400
O2674       O  0.59279523  0.41219420  0.77073814    -0.86100
O2675       O  0.54186121  0.43236323  0.83494416    -0.72900
O2676       O  0.53662484  0.37994804  0.81320538    -0.85000
Zr2677     Zr  0.61590397  0.42635987  0.89382749     2.26400
Zr2678     Zr  0.58985652  0.47728308  0.85344315     2.06300
Zr2679     Zr  0.57859146  0.37062585  0.81137314     2.10000
Zr2680     Zr  0.63928817  0.45672143  0.78986146     1.78800
O2681       O  0.53590549  0.31944517  0.82471615    -0.93800
O2682       O  0.66869259  0.51098695  0.77818972    -0.41600
O2683       O  0.62595266  0.41613153  0.83200286    -0.78200
O2684       O  0.63154411  0.46768533  0.85167748    -0.96900
O2685       O  0.57501848  0.43646946  0.89571989    -0.90200
O2686       O  0.56949506  0.38080290  0.87331402    -0.93100
C2687       C  0.60670702  0.45302861  0.70379918     1.00700
C2688       C  0.53762312  0.36007740  0.73286354     1.13600
C2689       C  0.54036131  0.48181624  0.79066476     1.04400
O2690       O  0.62278487  0.02740015  0.83799631    -0.95200
O2691       O  0.62703424  0.50553413  0.90292258    -0.91000
O2692       O  0.64282425  0.47543621  0.92748375    -0.84100
C2693       C  0.64352664  0.50052915  0.92554237     1.11000
O2694       O  0.97335126  0.37318994  0.85582847    -0.97200
Zr2695     Zr  0.52861685  0.39102264  0.87494810     1.88900
O2696       O  0.58403207  0.39734138  0.94662485    -0.73800
O2697       O  0.55894544  0.48681320  0.89627351    -0.53100
O2698       O  0.50284895  0.41086441  0.91136205    -0.97800
O2699       O  0.49628530  0.33606896  0.88038438    -0.55000
O2700       O  0.53249621  0.38035647  0.93871800    -0.74400
C2701       C  0.55551526  0.38332274  0.95763333     0.98000
O2702       O  0.65887098  0.44115102  0.93802449    -0.63200
O2703       O  0.60663288  0.35152626  0.77815314    -0.58000
O2704       O  0.63886364  0.39484375  0.88982688    -0.94700
O2705       O  0.60852393  0.35589192  0.84987788    -0.93100
O2706       O  0.66598019  0.43459822  0.76038685    -0.93400
O2707       O  0.69438565  0.48109968  0.80727228    -0.92200
C2708       C  0.63048576  0.36920815  0.87449670     1.16800
H2709       H  0.59584313  0.40705871  0.74613957     0.32800
H2710       H  0.65125873  0.48530861  0.85929711     0.43600
H2711       H  0.56497579  0.36390983  0.88880412     0.37100
H2712       H  0.52463382  0.43549012  0.83591170     0.33600
H2713       H  0.65433207  0.01110735  0.75952066     0.25400
H2714       H  0.56162913  0.47955369  0.92050069     0.31400
H2715       H  0.98644089  0.39142337  0.92899691     0.37300
H2716       H  0.66675627  0.42130661  0.77935010     0.31700
H2717       H  0.59038743  0.33065133  0.77033435     0.30600
H2718       H  0.51783015  0.31693734  0.81028739     0.32300
H2719       H  0.97640571  0.32960641  0.89907960     0.31300
H2720       H  0.69466033  0.46928454  0.82854531     0.35200
H2721       H  0.65345244  0.42262366  0.95181711     0.28000
H2722       H  0.51285100  0.42595029  0.71744721     0.32200
H2723       H  0.97127142  0.36548835  0.83017462     0.35100
H2724       H  0.61348170  0.36316993  0.75489727     0.27700
H2725       H  0.67721004  0.44581889  0.92302138     0.40500
H2726       H  0.61374655  0.03802072  0.85030643     0.30600
H2727       H  0.66717323  0.52031390  0.80136827     0.38200
H2728       H  0.50875121  0.33033358  0.89566507     0.30100
H2729       H  0.57054586  0.50912798  0.89910221     0.30100
H2730       H  0.48995459  0.40504427  0.74859719     0.30400
C2731       C  0.52078996  0.37981444  0.64106041     0.79600
N2732       N  0.52534800  0.36216288  0.61811027    -0.78700
C2733       C  0.53351027  0.34299483  0.63118516     0.82000
N2734       N  0.53699799  0.34103988  0.66858349    -0.78700
C2735       C  0.53313135  0.35941928  0.69213250     0.82100
N2736       N  0.52455669  0.37817190  0.67802435    -0.80400
C2737       C  0.59232455  0.46739080  0.60810144     0.79600
N2738       N  0.61850856  0.47234372  0.59123986    -0.78700
C2739       C  0.64042361  0.46986984  0.61020050     0.82000
N2740       N  0.63698803  0.46359528  0.64689954    -0.78700
C2741       C  0.61084387  0.45864918  0.66404831     0.82100
N2742       N  0.58867701  0.46028999  0.64451857    -0.80400
C2743       C  0.56461688  0.34666728  0.03917922     0.79600
N2744       N  0.57018835  0.36222429  0.00745870    -0.78700
C2745       C  0.54882529  0.36787957  0.99331385     0.82000
N2746       N  0.52112373  0.35736869  0.01099612    -0.78700
C2747       C  0.01523007  0.33684425  0.04402558     0.82100
N2748       N  0.03730416  0.33151992  0.05697841    -0.80400
C2749       C  0.71094965  0.07569790  0.94596495     0.79600
N2750       N  0.70656283  0.07874771  0.98213527    -0.78700
C2751       C  0.68228926  0.05613036  0.00064641     0.82000
N2752       N  0.66152706  0.02975064  0.98263841    -0.78700
C2753       C  0.66526850  0.02655791  0.94599912     0.82100
N2754       N  0.68989658  0.04954066  0.92790962    -0.80400
C2755       C  0.98245757  0.01077495  0.22265842     0.79600
N2756       N  0.51501832  0.02662703  0.21854098    -0.78700
C2757       C  0.52839247  0.01037505  0.21268980     0.82000
N2758       N  0.50860509  0.47646915  0.20682375    -0.78700
C2759       C  0.97726961  0.46364083  0.21365649     0.82100
N2760       N  0.96462829  0.48107061  0.21873393    -0.80400
C2761       C  0.80628161  0.17642589  0.55099663     0.79600
N2762       N  0.79100837  0.14547242  0.54846022    -0.78700
C2763       C  0.80734426  0.13135970  0.54956053     0.82000
N2764       N  0.83886958  0.14828115  0.55182596    -0.78700
C2765       C  0.85475842  0.17881762  0.55438188     0.82100
N2766       N  0.83842009  0.19311066  0.55339747    -0.80400
C2767       C  0.68287441  0.32050967  0.44543447     0.79600
N2768       N  0.65077891  0.30318186  0.44625799    -0.78700
C2769       C  0.63393785  0.31682101  0.44876044     0.82000
N2770       N  0.64927186  0.34735466  0.45139104    -0.78700
C2771       C  0.68074630  0.36487719  0.45035688     0.82100
N2772       N  0.69763651  0.35138494  0.44817787    -0.80400
C2773       C  0.52299372  0.49665469  0.78187872     0.79600
N2774       N  0.98833057  0.47712560  0.77944882    -0.78700
C2775       C  0.97197479  0.49123500  0.77647635     0.82000
N2776       N  0.98769041  0.02182491  0.77713163    -0.78700
C2777       C  0.52039610  0.03864310  0.78028542     0.82100
N2778       N  0.53603250  0.02398822  0.78351740    -0.80400
C2779       C  0.64762159  0.35416041  0.88469941     0.79600
N2780       N  0.67930708  0.37057661  0.88816675    -0.78700
C2781       C  0.69591582  0.35683832  0.89213731     0.82000
N2782       N  0.68010152  0.32582316  0.89265858    -0.78700
C2783       C  0.64806540  0.30899102  0.88963871     0.82100
N2784       N  0.63237455  0.32346674  0.88453129    -0.80400
C2785       C  0.85470482  0.14644660  0.11599868     0.79600
N2786       N  0.82342939  0.13283355  0.11994965    -0.78700
C2787       C  0.80947179  0.14890234  0.12047174     0.82000
N2788       N  0.82735002  0.17964950  0.11800001    -0.78700
C2789       C  0.85906698  0.19401861  0.11425648     0.82100
N2790       N  0.87271949  0.17724238  0.11412466    -0.80400
C2791       C  0.56182130  0.06895272  0.57807236    -0.23100
C2792       C  0.57867863  0.05492779  0.57159776     0.08900
C2793       C  0.61180672  0.07233479  0.57330556     0.09300
C2794       C  0.62687359  0.10216354  0.58582345    -0.18000
C2795       C  0.60983060  0.11472566  0.59778927    -0.28400
C2796       C  0.57707621  0.09878341  0.59175488     0.17600
C2797       C  0.56271066  0.02179523  0.57484907     0.11600
C2798       C  0.63151363  0.05891756  0.56588201    -0.12800
H2799       H  0.65209532  0.11478807  0.58963703     0.11900
C2800       C  0.55761182  0.11215238  0.60021346    -0.23600
H2801       H  0.53648250  0.05568352  0.57599854     0.07500
C2802       C  0.55463155  0.00921521  0.61059447     0.03800
C2803       C  0.55575390  0.98356535  0.61824786    -0.20800
C2804       C  0.56937207  0.97347293  0.59286717    -0.13100
C2805       C  0.57130509  0.98213005  0.55531239     0.12500
C2806       C  0.56660107  0.00565341  0.54653067    -0.23600
C2807       C  0.55048503  0.02563677  0.64250115    -0.06600
H2808       H  0.55097551  0.47680080  0.64207660     0.14100
C2809       C  0.58088096  0.96927798  0.52449336    -0.16800
H2810       H  0.57170308  0.01480395  0.51883199     0.08400
H2811       H  0.54095402  0.09906734  0.62254740     0.06300
H2812       H  0.54415094  0.11093769  0.57498756     0.07500
H2813       H  0.57193888  0.13627365  0.60887468     0.06500
H2814       H  0.62786562  0.05056479  0.53683490     0.01400
H2815       H  0.62530131  0.04007032  0.58520150     0.01900
H2816       H  0.65691249  0.07582845  0.56978177     0.05400
H2817       H  0.54455233  0.01255502  0.66855301     0.04400
H2818       H  0.53142103  0.02966930  0.63622392    -0.01400
H2819       H  0.57252040  0.04776193  0.64767544     0.00100
H2820       H  0.58297016  0.95010839  0.53337327     0.03700
H2821       H  0.60369153  0.98726914  0.51335243     0.05700
H2822       H  0.56296052  0.96073440  0.50189802     0.06500
C2823       C  0.59146026  0.31739009  0.23918650    -0.23100
C2824       C  0.60338350  0.34779984  0.23015106     0.08900
C2825       C  0.58249059  0.35793525  0.22541634     0.09300
C2826       C  0.55154718  0.33908729  0.23583064    -0.18000
C2827       C  0.54121612  0.31114773  0.25240307    -0.28400
C2828       C  0.56069770  0.29916753  0.25195008     0.17600
C2829       C  0.63598841  0.37071046  0.24082737     0.11600
C2830       C  0.59343308  0.39020435  0.21521404    -0.12800
H2831       H  0.53661809  0.34819397  0.23581040     0.11900
C2832       C  0.55062299  0.26842579  0.26693874    -0.23600
H2833       H  0.60743137  0.30949266  0.24200426     0.07500
C2834       C  0.64294283  0.37668051  0.27910208     0.03800
C2835       C  0.66417681  0.40620241  0.29077673    -0.20800
C2836       C  0.67765214  0.43010604  0.26553538    -0.13100
C2837       C  0.67470030  0.42340111  0.22713126     0.12500
C2838       C  0.65464339  0.39326018  0.21526308    -0.23600
C2839       C  0.62484559  0.35326014  0.30834386    -0.06600
H2840       H  0.66727945  0.41091920  0.32029449     0.14100
C2841       C  0.69088132  0.44722582  0.19803066    -0.16800
H2842       H  0.65004660  0.38833785  0.18589206     0.08400
H2843       H  0.56543297  0.27099351  0.29142843     0.06300
H2844       H  0.55349986  0.25490156  0.24532368     0.07500
H2845       H  0.52574241  0.25556064  0.27512926     0.06500
H2846       H  0.60477410  0.39571013  0.18784581     0.01400
H2847       H  0.61005410  0.40616502  0.23661030     0.01900
H2848       H  0.57387455  0.39407950  0.21333848     0.05400
H2849       H  0.63356908  0.36219426  0.33678849     0.04400
H2850       H  0.62709072  0.33338717  0.30422719    -0.01400
H2851       H  0.59979594  0.34602290  0.30704474     0.00100
H2852       H  0.70768740  0.46991992  0.20987174     0.03700
H2853       H  0.69778727  0.93820030  0.17208769     0.05700
H2854       H  0.67319174  0.44857804  0.18096861     0.06500
C2855       C  0.80689254  0.24737393  0.90429554    -0.23100
C2856       C  0.81351703  0.22837407  0.92416865     0.08900
C2857       C  0.84396604  0.24006860  0.93826403     0.09300
C2858       C  0.86409602  0.27162694  0.94138170    -0.18000
C2859       C  0.85410657  0.29108198  0.92987196    -0.28400
C2860       C  0.82655851  0.27884681  0.90745468     0.17600
C2861       C  0.78623877  0.20243388  0.94184063     0.11600
C2862       C  0.85392158  0.21917436  0.95233471    -0.12800
H2863       H  0.88629757  0.28089080  0.95593693     0.11900
C2864       C  0.81544300  0.29789304  0.89018453    -0.23600
H2865       H  0.78386267  0.23782918  0.89164535     0.07500
C2866       C  0.77860290  0.20598534  0.97843228     0.03800
C2867       C  0.74806653  0.18705881  0.99054826    -0.20800
C2868       C  0.72463452  0.16512711  0.96720275    -0.13100
C2869       C  0.73228308  0.16095488  0.93092017     0.12500
C2870       C  0.76329896  0.17916570  0.91908327    -0.23600
C2871       C  0.80135403  0.23178787  0.00371376    -0.06600
H2872       H  0.74174310  0.19161621  0.01719435     0.14100
C2873       C  0.70772362  0.13877100  0.90377434    -0.16800
H2874       H  0.76900879  0.17728050  0.89074699     0.08400
H2875       H  0.80933026  0.30889238  0.91198146     0.06300
H2876       H  0.79410400  0.28394796  0.87275556     0.07500
H2877       H  0.83383136  0.31518323  0.87207103     0.06500
H2878       H  0.85291054  0.20459649  0.92915152     0.01400
H2879       H  0.83819778  0.20432892  0.97438096     0.01900
H2880       H  0.87822139  0.23203278  0.96369303     0.05400
H2881       H  0.79069826  0.23161401  0.03053887     0.04400
H2882       H  0.80914325  0.25383437  0.99047504    -0.01400
H2883       H  0.82183918  0.23002964  0.01023912     0.00100
H2884       H  0.71833715  0.13681969  0.87796374     0.03700
H2885       H  0.69169566  0.14640466  0.89571193     0.05700
H2886       H  0.69408439  0.11601116  0.91629706     0.06500
C2887       C  0.80762914  0.10729353  0.74922246    -0.23100
C2888       C  0.83494124  0.11506995  0.76950479     0.08900
C2889       C  0.83490263  0.09264038  0.79138857     0.09300
C2890       C  0.81194195  0.06232229  0.78434494    -0.18000
C2891       C  0.79161057  0.05463056  0.75356666    -0.28400
C2892       C  0.78594130  0.07677714  0.74016295     0.17600
C2893       C  0.86530045  0.13977033  0.75537627     0.11600
C2894       C  0.86139007  0.09998866  0.81786282    -0.12800
H2895       H  0.81408242  0.04504255  0.79812038     0.11900
C2896       C  0.75917075  0.06915587  0.71414695    -0.23600
H2897       H  0.80622093  0.12479141  0.73485936     0.07500
C2898       C  0.87423547  0.13699277  0.71920494     0.03800
C2899       C  0.90511000  0.15580938  0.70895531    -0.20800
C2900       C  0.92803686  0.17660985  0.73379127    -0.13100
C2901       C  0.91941776  0.18030082  0.76957710     0.12500
C2902       C  0.88781105  0.16215881  0.77971912    -0.23600
C2903       C  0.85230340  0.11273090  0.69168683    -0.06600
H2904       H  0.91183155  0.15275879  0.68163487     0.14100
C2905       C  0.94272794  0.20264308  0.79750771    -0.16800
H2906       H  0.88106964  0.16426348  0.80742138     0.08400
H2907       H  0.76830026  0.07968932  0.68683076     0.06300
H2908       H  0.74317234  0.04433935  0.71030231     0.07500
H2909       H  0.74525480  0.07804854  0.72580461     0.06500
H2910       H  0.86406549  0.11715769  0.83820234     0.01400
H2911       H  0.88353145  0.10891852  0.80259231     0.01900
H2912       H  0.85701984  0.07978858  0.83343510     0.05400
H2913       H  0.86423414  0.11327077  0.66576480     0.04400
H2914       H  0.83304334  0.11603336  0.68352890    -0.01400
H2915       H  0.84283449  0.09000595  0.70379159     0.00100
H2916       H  0.93534275  0.21831094  0.80653737     0.03700
H2917       H  0.96660972  0.21651963  0.78623883     0.05700
H2918       H  0.94369737  0.19031539  0.82201181     0.06500
C2919       C  0.92823658  0.40771868  0.56141117    -0.23100
C2920       C  0.95053190  0.42841901  0.58682810     0.08900
C2921       C  0.94397650  0.44775835  0.60655080     0.09300
C2922       C  0.91261726  0.43908429  0.61022550    -0.18000
C2923       C  0.88882011  0.41239048  0.59273430    -0.28400
C2924       C  0.89732908  0.40041118  0.56297747     0.17600
C2925       C  0.97235857  0.42031403  0.60237476     0.11600
C2926       C  0.96963987  0.47540326  0.62636672    -0.12800
H2927       H  0.90670002  0.45067764  0.63035639     0.11900
C2928       C  0.87420948  0.37739356  0.53554227    -0.23600
H2929       H  0.93380795  0.39437111  0.54374301     0.07500
C2930       C  0.96628852  0.40626931  0.63745352     0.03800
C2931       C  0.98330462  0.39361707  0.64894322    -0.20800
C2932       C  0.00510602  0.39291815  0.62613273    -0.13100
C2933       C  0.00925437  0.40449176  0.58977332     0.12500
C2934       C  0.99374078  0.41919145  0.57891288    -0.23600
C2935       C  0.93968462  0.40141840  0.66161092    -0.06600
H2936       H  0.97735952  0.38159827  0.67483929     0.14100
C2937       C  0.02837283  0.40004830  0.56163522    -0.16800
H2938       H  0.99665517  0.42805667  0.55113930     0.08400
H2939       H  0.88411184  0.38322164  0.50732218     0.06300
H2940       H  0.85218584  0.37735095  0.53448310     0.07500
H2941       H  0.86928653  0.35453127  0.54257210     0.06500
H2942       H  0.98623916  0.49101477  0.60544806     0.01400
H2943       H  0.98241783  0.46939417  0.64621855     0.01900
H2944       H  0.96039447  0.48744537  0.64178846     0.05400
H2945       H  0.93712805  0.38782631  0.68647092     0.04400
H2946       H  0.91724125  0.38891500  0.64576954    -0.01400
H2947       H  0.94368674  0.42328135  0.67182635     0.00100
H2948       H  0.01697783  0.37564095  0.55460120     0.03700
H2949       H  0.55397486  0.41297075  0.57422052     0.05700
H2950       H  0.53222552  0.41653411  0.53678277     0.06500
C2951       C  0.78997229  0.56089500  0.90546339    -0.23100
C2952       C  0.81279053  0.09477573  0.89858877     0.08900
C2953       C  0.84371377  0.10670559  0.91194137     0.09300
C2954       C  0.85184735  0.08710549  0.92766812    -0.18000
C2955       C  0.82988826  0.05583565  0.93030929    -0.28400
C2956       C  0.79787097  0.54161825  0.92222345     0.17600
C2957       C  0.79801570  0.11318578  0.89810574     0.11600
C2958       C  0.86812187  0.14008190  0.91122083    -0.12800
H2959       H  0.87514724  0.09652108  0.93942561     0.11900
C2960       C  0.77234567  0.50916388  0.92914907    -0.23600
H2961       H  0.76560880  0.55185475  0.89834230     0.07500
C2962       C  0.77225737  0.10439961  0.87408506     0.03800
C2963       C  0.74330063  0.09555210  0.88961618    -0.20800
C2964       C  0.74097290  0.09785195  0.92810246    -0.13100
C2965       C  0.76904262  0.11700436  0.94879562     0.12500
C2966       C  0.79767160  0.12527405  0.93273990    -0.23600
C2967       C  0.77458946  0.10039484  0.83334071    -0.06600
H2968       H  0.72230421  0.08400028  0.87240885     0.14100
C2969       C  0.76957841  0.12606157  0.98865760    -0.16800
H2970       H  0.81840036  0.13532818  0.95037744     0.08400
H2971       H  0.77736638  0.49350577  0.91445804     0.06300
H2972       H  0.74911408  0.50413956  0.91913115     0.07500
H2973       H  0.77066179  0.50458882  0.95932190     0.06500
H2974       H  0.87546390  0.14891337  0.93996142     0.01400
H2975       H  0.85941593  0.15318327  0.89710588     0.01900
H2976       H  0.88891601  0.14382454  0.89606685     0.05400
H2977       H  0.75233962  0.09348086  0.81840742     0.04400
H2978       H  0.77824938  0.57807325  0.83399172    -0.01400
H2979       H  0.79330564  0.12221584  0.82178253     0.00100
H2980       H  0.79355731  0.14379767  0.99809575     0.03700
H2981       H  0.76152014  0.10629737  0.00697972     0.05700
H2982       H  0.75455408  0.13551598  0.99191000     0.06500
C2983       C  0.61456151  0.32792142  0.09806785    -0.23100
C2984       C  0.61554351  0.30684576  0.07459360     0.08900
C2985       C  0.60324144  0.30255523  0.03777142     0.09300
C2986       C  0.58983497  0.31879154  0.02624333    -0.18000
C2987       C  0.58587605  0.33704565  0.05100043    -0.28400
C2988       C  0.59900297  0.34245832  0.08697713     0.17600
C2989       C  0.61993911  0.28350608  0.09177955     0.11600
C2990       C  0.60021856  0.27836402  0.01157223    -0.12800
H2991       H  0.57941980  0.31481539  0.99870992     0.11900
C2992       C  0.59579025  0.36274151  0.11387520    -0.23600
H2993       H  0.62336307  0.33077327  0.12629317     0.07500
C2994       C  0.63762440  0.27344041  0.07422614     0.03800
C2995       C  0.62398051  0.24212644  0.06919644    -0.20800
C2996       C  0.59435612  0.22173708  0.08398958    -0.13100
C2997       C  0.58315192  0.23243381  0.11226790     0.12500
C2998       C  0.09410784  0.25479192  0.11301411    -0.23600
C2999       C  0.66915072  0.29570653  0.05848264    -0.06600
H3000       H  0.63445267  0.23394259  0.05021484     0.14100
C3001       C  0.05582864  0.20277004  0.13537783    -0.16800
H3002       H  0.08142156  0.26240673  0.12903551     0.08400
H3003       H  0.60658910  0.38584176  0.10233097     0.06300
H3004       H  0.11174266  0.36065724  0.13621076     0.07500
H3005       H  0.57074345  0.35363544  0.11915959     0.06500
H3006       H  0.58600371  0.25580325  0.02439883     0.01400
H3007       H  0.62345379  0.28269260  0.00409645     0.01900
H3008       H  0.58823178  0.27747117  0.98513666     0.05400
H3009       H  0.67918866  0.28397075  0.04401531     0.04400
H3010       H  0.68539681  0.30959190  0.08143604    -0.01400
H3011       H  0.66769138  0.31117712  0.03873073     0.00100
H3012       H  0.05467889  0.21490106  0.16007955     0.03700
H3013       H  0.05861323  0.18419524  0.14548693     0.05700
H3014       H  0.03346564  0.19332424  0.11959944     0.06500
C3015       C  0.77371123  0.39431365  0.27521176    -0.23100
C3016       C  0.74098067  0.37961373  0.27463059     0.08900
C3017       C  0.72233265  0.34777294  0.27447316     0.09300
C3018       C  0.73710976  0.33137848  0.27857152    -0.18000
C3019       C  0.76991319  0.34643782  0.28127205    -0.28400
C3020       C  0.78846612  0.37822241  0.27835245     0.17600
C3021       C  0.72875380  0.39948875  0.27983952     0.11600
C3022       C  0.68732308  0.33136247  0.26986615    -0.12800
H3023       H  0.72313167  0.30691165  0.28046171     0.11900
C3024       C  0.82376589  0.39565595  0.28136290    -0.23600
H3025       H  0.78787738  0.41887109  0.27537341     0.07500
C3026       C  0.72663237  0.40712513  0.31671577     0.03800
C3027       C  0.74057694  0.43762193  0.32642445    -0.20800
C3028       C  0.75723417  0.46046890  0.30044637    -0.13100
C3029       C  0.75307109  0.45218932  0.26220388     0.12500
C3030       C  0.73731758  0.42137993  0.25243253    -0.23600
C3031       C  0.71339408  0.38371846  0.34679110    -0.06600
H3032       H  0.73891653  0.93877365  0.35142629     0.14100
C3033       C  0.76703379  0.47500351  0.23148656    -0.16800
H3034       H  0.73756880  0.41502175  0.22386657     0.08400
H3035       H  0.83117105  0.39047156  0.30794400     0.06300
H3036       H  0.83413369  0.42052243  0.28052704     0.07500
H3037       H  0.83345958  0.38959128  0.25784005     0.06500
H3038       H  0.68133201  0.33782881  0.24322776     0.01400
H3039       H  0.67701800  0.33723022  0.29268509     0.01900
H3040       H  0.67643944  0.30641713  0.26973336     0.05400
H3041       H  0.71594726  0.39416838  0.37445051     0.04400
H3042       H  0.72558712  0.37117214  0.34799638    -0.01400
H3043       H  0.68804379  0.36773932  0.34171948     0.00100
H3044       H  0.79275107  0.48545249  0.23078649     0.03700
H3045       H  0.76127138  0.49267187  0.23527121     0.05700
H3046       H  0.75787283  0.46423052  0.20388246     0.06500
C3047       C  0.46210048  0.03772231  0.41380454    -0.23100
C3048       C  0.48810154  0.05510313  0.43733345     0.08900
C3049       C  0.48763720  0.07624125  0.46147474     0.09300
C3050       C  0.46787824  0.08678788  0.45265217    -0.18000
C3051       C  0.94778021  0.07178393  0.42046442    -0.28400
C3052       C  0.94183489  0.04409330  0.40543112     0.17600
C3053       C  0.51867646  0.06409571  0.42132916     0.11600
C3054       C  0.51110074  0.09076776  0.49283709    -0.12800
H3055       H  0.47128665  0.10668794  0.46693416     0.11900
C3056       C  0.91596027  0.02610014  0.37750969    -0.23600
H3057       H  0.46088324  0.01983385  0.39696674     0.07500
C3058       C  0.53851780  0.05481414  0.43514334     0.03800
C3059       C  0.56853109  0.06736895  0.42004950    -0.20800
C3060       C  0.57858800  0.08867371  0.39147406    -0.13100
C3061       C  0.55826229  0.09721187  0.37705567     0.12500
C3062       C  0.52861684  0.08472392  0.39206196    -0.23600
C3063       C  0.52812548  0.03197506  0.46558554    -0.06600
H3064       H  0.58439669  0.06107273  0.43102946     0.14100
C3065       C  0.56733813  0.12023285  0.34678675    -0.16800
H3066       H  0.51330664  0.09189803  0.38153227     0.08400
H3067       H  0.90108979  0.00237126  0.38696924     0.06300
H3068       H  0.92614858  0.02621246  0.35040219     0.07500
H3069       H  0.90073827  0.03543339  0.37398625     0.06500
H3070       H  0.53531241  0.10222507  0.48226880     0.01400
H3071       H  0.50753062  0.07317909  0.51293215     0.01900
H3072       H  0.50838911  0.10784804  0.50793750     0.05400
H3073       H  0.54607732  0.02639668  0.47197524     0.04400
H3074       H  0.50621635  0.01077519  0.45696226    -0.01400
H3075       H  0.52389853  0.04099448  0.49118347     0.00100
H3076       H  0.55075829  0.10968247  0.32296033     0.03700
H3077       H  0.59127891  0.12930400  0.33641975     0.05700
H3078       H  0.56611324  0.13962405  0.35738819     0.06500
Zr3079     Zr  0.92011799  0.55571005  0.23563605     2.17500
O3080       O  0.89658213  0.51151172  0.27559004    -0.52000
O3081       O  0.95328674  0.58891700  0.28553880    -0.75200
O3082       O  0.94880904  0.52901537  0.23543139    -0.81900
O3083       O  0.84906271  0.56271438  0.25107256    -0.83700
O3084       O  0.98382069  0.55024227  0.18891193    -0.79300
O3085       O  0.87834381  0.54593413  0.27775797    -0.91000
O3086       O  0.96159711  0.63564268  0.27599833    -0.76900
O3087       O  0.96759664  0.59726249  0.21232226    -0.86400
O3088       O  0.91317240  0.59752916  0.23149070    -0.86100
O3089       O  0.92421524  0.53873804  0.17532284    -0.72900
O3090       O  0.87492514  0.53996347  0.19635341    -0.85000
Zr3091     Zr  0.92172437  0.60745172  0.10647566     2.26400
Zr3092     Zr  0.97138294  0.58082552  0.15167751     2.06300
Zr3093     Zr  0.87002605  0.58306821  0.19098759     2.10000
Zr3094     Zr  0.96019437  0.63892448  0.20862748     1.78800
O3095       O  0.81410850  0.54645542  0.18334327    -0.93800
O3096       O  0.01634365  0.66504501  0.22126253    -0.41600
O3097       O  0.91702354  0.62492639  0.16664720    -0.78200
O3098       O  0.96601945  0.62375646  0.14806232    -0.96900
O3099       O  0.92779854  0.56515999  0.11045954    -0.90200
O3100       O  0.87415880  0.56655602  0.13072747    -0.93100
C3101       C  0.95868307  0.61459298  0.29721041     1.00700
C3102       C  0.85549773  0.55027425  0.27732540     1.13600
C3103       C  0.97128041  0.53169397  0.21568079     1.04400
O3104       O  0.52298798  0.60624016  0.16487965    -0.95200
O3105       O  0.99899440  0.60964683  0.09799487    -0.91000
O3106       O  0.97099952  0.62841922  0.07314624    -0.84100
C3107       C  0.99520240  0.62617604  0.07507387     1.11000
O3108       O  0.85160409  0.97181485  0.16115397    -0.97200
Zr3109     Zr  0.88065691  0.52464803  0.13600472     1.88900
O3110       O  0.88982005  0.57253677  0.05550612    -0.73800
O3111       O  0.98025855  0.54804060  0.11232239    -0.53100
O3112       O  0.89435369  0.49006599  0.10982522    -0.97800
O3113       O  0.82387765  0.49738124  0.12816898    -0.55000
O3114       O  0.87495057  0.52446871  0.07050404    -0.74400
C3115       C  0.87715414  0.54413406  0.04784903     0.98000
O3116       O  0.93385460  0.64279739  0.05581953    -0.63200
O3117       O  0.86260837  0.61933627  0.22488119    -0.58000
O3118       O  0.89526271  0.63585610  0.11051164    -0.94700
O3119       O  0.85420557  0.60801823  0.14814637    -0.93100
O3120       O  0.94409230  0.67209427  0.23359937    -0.93400
O3121       O  0.98767407  0.68896227  0.18055358    -0.92200
C3122       C  0.86928022  0.62937709  0.12503950     1.16800
H3123       H  0.90833124  0.60260286  0.25514525     0.32800
H3124       H  0.98478861  0.64122281  0.13885670     0.43600
H3125       H  0.85641620  0.56206101  0.11524207     0.37100
H3126       H  0.92493688  0.52061818  0.17582713     0.33600
H3127       H  0.02065019  0.68089611  0.23983164     0.25400
H3128       H  0.97064471  0.54759893  0.08806505     0.31400
H3129       H  0.91739858  0.50226207  0.10770351     0.37300
H3130       H  0.92802755  0.65978351  0.25212601     0.31700
H3131       H  0.87631024  0.63898174  0.21264649     0.30600
H3132       H  0.80853255  0.55024857  0.15845227     0.32300
H3133       H  0.81615840  0.00578738  0.11123031     0.31300
H3134       H  0.99774674  0.70375708  0.20122338     0.35200
H3135       H  0.91348908  0.63714897  0.04432551     0.28000
H3136       H  0.91395286  0.51111867  0.28798134     0.32200
H3137       H  0.86579953  0.97333720  0.18141965     0.35100
H3138       H  0.84105177  0.61385617  0.21841961     0.27700
H3139       H  0.94187270  0.66286533  0.06759315     0.40500
H3140       H  0.53235520  0.59896916  0.14695182     0.30600
H3141       H  0.01925637  0.65033510  0.23515523     0.38200
H3142       H  0.81595078  0.49762612  0.15304403     0.30100
H3143       H  0.00306650  0.55967153  0.10790944     0.30100
H3144       H  0.88705881  0.49389313  0.25837952     0.30400
C3145       C  0.94938227  0.59494353  0.39607101     0.79600
N3146       N  0.95256121  0.62006691  0.41194657    -0.78700
C3147       C  0.95888932  0.64430328  0.39104846     0.82000
N3148       N  0.96244697  0.64366491  0.35375580    -0.78700
C3149       C  0.95910240  0.61838946  0.33763273     0.82100
N3150       N  0.95288996  0.59453155  0.35899378    -0.80400
C3151       C  0.78204298  0.49088963  0.31458175     0.79600
N3152       N  0.80490689  0.50985769  0.29184871    -0.78700
C3153       C  0.83130630  0.53465862  0.30465568     0.82000
N3154       N  0.83541026  0.54135102  0.34168777    -0.78700
C3155       C  0.81201538  0.52266314  0.36511733     0.82100
N3156       N  0.78598769  0.49734854  0.35139154    -0.80400
C3157       C  0.57186888  0.69033786  0.06420744     0.79600
N3158       N  0.54512365  0.66775453  0.07887657    -0.78700
C3159       C  0.52090619  0.64739313  0.05702860     0.82000
N3160       N  0.52309271  0.64958185  0.01948887    -0.78700
C3161       C  0.55015139  0.67213585  0.00439717     0.82100
N3162       N  0.57413530  0.69223968  0.02686760    -0.80400
C3163       C  0.83749762  0.53597856  0.95824431     0.79600
N3164       N  0.85390087  0.54815868  0.99023768    -0.78700
C3165       C  0.86253740  0.53230842  0.01139252     0.82000
N3166       N  0.85540315  0.50431160  0.99993180    -0.78700
C3167       C  0.83876487  0.49186578  0.96803122     0.82100
N3168       N  0.83002353  0.50791906  0.94730032    -0.80400
Zr3169     Zr  0.71751130  0.74727870  0.43133956     2.17500
O3170       O  0.68492127  0.73854730  0.37643625    -0.52000
O3171       O  0.75518002  0.77407230  0.38198316    -0.75200
O3172       O  0.69380076  0.77916517  0.43136475    -0.81900
O3173       O  0.70388714  0.66621913  0.42851946    -0.83700
O3174       O  0.72087682  0.81633872  0.47454749    -0.79300
O3175       O  0.68672372  0.69563205  0.40508699    -0.91000
O3176       O  0.80515861  0.78834733  0.39664854    -0.76900
O3177       O  0.76378384  0.79113969  0.45495099    -0.86400
O3178       O  0.75728434  0.73524069  0.43712039    -0.86100
O3179       O  0.70206026  0.75620770  0.49069929    -0.72900
O3180       O  0.69859298  0.70477522  0.47217722    -0.85000
Zr3181     Zr  0.76912383  0.74698857  0.56423444     2.26400
Zr3182     Zr  0.74895751  0.80007318  0.51385806     2.06300
Zr3183     Zr  0.73928430  0.69424407  0.47957703     2.10000
Zr3184     Zr  0.80292372  0.77867828  0.46241224     1.78800
O3185       O  0.70747619  0.64069895  0.49467489    -0.93800
O3186       O  0.83675782  0.83353972  0.45827765    -0.41600
O3187       O  0.78482923  0.73793087  0.50524958    -0.78200
O3188       O  0.78947047  0.78915020  0.52175354    -0.96900
O3189       O  0.72943297  0.75874704  0.55551408    -0.90200
O3190       O  0.72362553  0.70204109  0.53896521    -0.93100
C3191       C  0.78426003  0.78604112  0.37405987     1.00700
C3192       C  0.68646904  0.67076583  0.40687711     1.13600
C3193       C  0.69992883  0.80358280  0.44875497     1.04400
O3194       O  0.78927500  0.85048288  0.49405432    -0.95200
O3195       O  0.77649163  0.82401242  0.57094468    -0.91000
O3196       O  0.79351463  0.79563486  0.59788556    -0.84100
C3197       C  0.79215971  0.81958861  0.59548357     1.11000
O3198       O  0.63897815  0.70846305  0.49765361    -0.97200
Zr3199     Zr  0.68437342  0.71431659  0.53085937     1.88900
O3200       O  0.72999562  0.71795409  0.61158117    -0.73800
O3201       O  0.72222598  0.81769468  0.55238555    -0.53100
O3202       O  0.63853922  0.70381426  0.56579505    -0.97800
O3203       O  0.65898325  0.65949302  0.53495364    -0.55000
O3204       O  0.70029737  0.73468228  0.59282625    -0.74400
C3205       C  0.70532520  0.71893384  0.61506874     0.98000
O3206       O  0.80171793  0.75577388  0.61912390    -0.63200
O3207       O  0.77087683  0.68515153  0.43731921    -0.58000
O3208       O  0.79580188  0.71818764  0.56181856    -0.94700
O3209       O  0.76950383  0.68069387  0.51881043    -0.93100
O3210       O  0.82931857  0.75574309  0.43422319    -0.93400
O3211       O  0.85435958  0.79608165  0.48957576    -0.89800
C3212       C  0.79022464  0.69391743  0.54471111     1.16800
H3213       H  0.76140339  0.72951959  0.41335203     0.32800
H3214       H  0.80843426  0.80681385  0.53164668     0.43600
H3215       H  0.71700281  0.68467560  0.55455980     0.37100
H3216       H  0.68507244  0.75964942  0.49046653     0.33600
H3217       H  0.85474077  0.83699507  0.44342966     0.25400
H3218       H  0.73061191  0.83887312  0.54480834     0.31400
H3219       H  0.62302006  0.68187944  0.56265295     0.37300
H3220       H  0.84460697  0.77117785  0.41710238     0.31700
H3221       H  0.79228449  0.69671213  0.44816293     0.30600
H3222       H  0.71554864  0.63077410  0.47896415     0.32300
H3223       H  0.66628788  0.65354938  0.51314031     0.31300
H3224       H  0.85504135  0.80614299  0.51319498     0.35200
H3225       H  0.79360272  0.73553936  0.62995494     0.28000
H3226       H  0.69301891  0.75874615  0.36549578     0.32200
H3227       H  0.64007779  0.70140603  0.47253562     0.35100
H3228       H  0.76402681  0.66368511  0.44105419     0.27700
H3229       H  0.82270432  0.76204874  0.60982862     0.40500
H3230       H  0.78945078  0.86436894  0.51299697     0.30600
H3231       H  0.82526811  0.83969159  0.44183127     0.38200
H3232       H  0.63664978  0.65141332  0.52914170     0.30100
H3233       H  0.70022256  0.80636266  0.54336017     0.30100
H3234       H  0.66400856  0.73240437  0.38587771     0.30400
Zr3235     Zr  0.86080470  0.95147683  0.76561721     2.17500
O3236       O  0.88363462  0.98317944  0.71128020    -0.52000
O3237       O  0.84997311  0.91670815  0.71437393    -0.75200
O3238       O  0.91882712  0.97657231  0.76516177    -0.81900
O3239       O  0.78425958  0.95156866  0.75926265    -0.83700
O3240       O  0.93109405  0.95279386  0.80860903    -0.79300
O3241       O  0.83466236  0.97631280  0.73959434    -0.91000
O3242       O  0.81686142  0.86755188  0.72963598    -0.76900
O3243       O  0.86351724  0.91069388  0.79115853    -0.86400
O3244       O  0.80823324  0.90909534  0.77075108    -0.86100
O3245       O  0.88697363  0.97029789  0.82488036    -0.72900
O3246       O  0.83342407  0.96686490  0.80503561    -0.85000
Zr3247     Zr  0.80960027  0.90290758  0.89845413     2.26400
Zr3248     Zr  0.88763213  0.92844988  0.85104397     2.06300
Zr3249     Zr  0.78151263  0.92319793  0.81234949     2.10000
Zr3250     Zr  0.81105090  0.86885185  0.79671376     1.78800
O3251       O  0.75429788  0.94976000  0.82239779    -0.93800
O3252       O  0.83860637  0.84239901  0.78872907    -0.41600
O3253       O  0.78425396  0.88295889  0.83900516    -0.78200
O3254       O  0.83511711  0.88570032  0.85732786    -0.96900
O3255       O  0.86221218  0.94503454  0.89126933    -0.90200
O3256       O  0.80641218  0.94330967  0.87100213    -0.93100
C3257       C  0.83330257  0.88838768  0.70622681     1.00700
C3258       C  0.80670478  0.97133471  0.73977473     1.13600
C3259       C  0.93852523  0.97190791  0.78237213     1.04400
O3260       O  0.90215313  0.89114756  0.84121566    -0.95200
O3261       O  0.88986967  0.90907407  0.91094456    -0.91000
O3262       O  0.84051087  0.88664022  0.93328385    -0.84100
C3263       C  0.86850286  0.89178326  0.93354902     1.11000
O3264       O  0.89896401  0.53068986  0.83880006    -0.97200
Zr3265     Zr  0.85913602  0.98496728  0.86349654     1.88900
O3266       O  0.81339054  0.94077692  0.94299747    -0.73800
O3267       O  0.93494860  0.96442088  0.88580028    -0.53100
O3268       O  0.88807095  0.03175549  0.89998628    -0.97800
O3269       O  0.82661500  0.00663604  0.85877117    -0.55000
O3270       O  0.86168149  0.97351620  0.92699850    -0.74400
C3271       C  0.83810284  0.96715518  0.94599189     0.98000
O3272       O  0.78142366  0.86894945  0.94948221    -0.63200
O3273       O  0.73954154  0.88659225  0.77119041    -0.58000
O3274       O  0.75169057  0.87238019  0.89701917    -0.94700
O3275       O  0.73781948  0.89476231  0.85362874    -0.93100
O3276       O  0.75769536  0.83704233  0.77264956    -0.93400
O3277       O  0.78297691  0.81842293  0.82314562    -0.92200
C3278       C  0.73123906  0.87599125  0.88006949     1.16800
H3279       H  0.79744394  0.90362399  0.74704547     0.32800
H3280       H  0.83544751  0.86893860  0.86813128     0.43600
H3281       H  0.79396651  0.94885740  0.88508133     0.37100
H3282       H  0.90807846  0.98746114  0.82370991     0.33600
H3283       H  0.82453465  0.82464135  0.77278914     0.25400
H3284       H  0.94501376  0.98318217  0.87105998     0.31400
H3285       H  0.87987034  0.54309018  0.89972761     0.37300
H3286       H  0.75772205  0.84523128  0.74794050     0.31700
H3287       H  0.72539809  0.86935702  0.78711788     0.30600
H3288       H  0.73530964  0.93909936  0.80636639     0.32300
H3289       H  0.80633923  0.49239589  0.84794169     0.31300
H3290       H  0.77583408  0.82121750  0.84741457     0.35200
H3291       H  0.78123316  0.85015519  0.94430017     0.28000
H3292       H  0.89352994  0.97409385  0.69731391     0.32200
H3293       H  0.89013601  0.53185431  0.81466637     0.35100
H3294       H  0.72745860  0.89599991  0.76463037     0.27700
H3295       H  0.79494953  0.87801038  0.97181056     0.40500
H3296       H  0.88511344  0.87224473  0.85224982     0.30600
H3297       H  0.85644198  0.85569002  0.77264141     0.38200
H3298       H  0.83918165  0.02524095  0.84416828     0.30100
H3299       H  0.92734725  0.96966454  0.90800544     0.30100
H3300       H  0.90129086  0.00285729  0.72064636     0.30400
C3301       C  0.85902438  0.89619069  0.60922749     0.79600
N3302       N  0.85686959  0.90187840  0.64539750    -0.78700
C3303       C  0.83398646  0.88037198  0.66709585     0.82000
N3304       N  0.81270170  0.85249164  0.65225342    -0.78700
C3305       C  0.81502912  0.84689414  0.61584470     0.82100
N3306       N  0.83801169  0.86862864  0.59516337    -0.80400
C3307       C  0.78477210  0.00893722  0.67016577     0.79600
N3308       N  0.79407652  0.99081966  0.68481544    -0.78700
C3309       C  0.80016433  0.99220640  0.72163401     0.82000
N3310       N  0.79618137  0.01083940  0.74366124    -0.78700
C3311       C  0.78178445  0.52630887  0.73353817     0.82100
N3312       N  0.77889538  0.52740785  0.69620949    -0.80400
C3313       C  0.87377054  0.87030159  0.95312315     0.79600
N3314       N  0.86542342  0.84484253  0.93357042    -0.78700
C3315       C  0.86881025  0.82290524  0.94776078     0.82000
N3316       N  0.88124463  0.82691933  0.98217209    -0.78700
C3317       C  0.89021134  0.85228716  0.00270550     0.82100
N3318       N  0.88627166  0.87442449  0.98825424    -0.80400
Zr3319     Zr  0.97032067  0.75183011  0.56471887     2.17500
O3320       O  0.94855328  0.77653127  0.59970650    -0.52000
O3321       O  0.97342161  0.72517901  0.61800237    -0.75200
O3322       O  0.91248608  0.72140841  0.56808631    -0.81900
O3323       O  0.54675077  0.82018434  0.58206997    -0.83700
O3324       O  0.89744705  0.68891485  0.51904520    -0.79300
O3325       O  0.49931551  0.78904720  0.60821746    -0.91000
O3326       O  0.50694910  0.70726763  0.60790815    -0.76900
O3327       O  0.96368537  0.70525038  0.54400202    -0.86400
O3328       O  0.51841012  0.75495728  0.56473329    -0.86100
O3329       O  0.94792777  0.74499227  0.50374212    -0.72900
O3330       O  0.49831567  0.79024504  0.52811009    -0.85000
Zr3331     Zr  0.51891594  0.74415530  0.43873754     2.26400
Zr3332     Zr  0.94193519  0.69846337  0.48283567     2.06300
Zr3333     Zr  0.54867094  0.79628248  0.52458284     2.10000
Zr3334     Zr  0.51206726  0.70954462  0.54101641     1.78800
O3335       O  0.56985080  0.84912976  0.50927373    -0.93800
O3336       O  0.98348966  0.65936016  0.55207340    -0.41600
O3337       O  0.54252896  0.75064212  0.49954341    -0.78200
O3338       O  0.99274466  0.70504014  0.48116886    -0.96900
O3339       O  0.97143479  0.73893065  0.44062509    -0.90200
O3340       O  0.52700982  0.79059008  0.46341193    -0.93100
C3341       C  0.99068141  0.71519553  0.62883267     1.00700
C3342       C  0.52657376  0.81319109  0.60768404     1.13600
C3343       C  0.89145437  0.69957534  0.54763550     1.04400
O3344       O  0.91695442  0.64583561  0.50207642    -0.95200
O3345       O  0.94396696  0.66821576  0.43322957    -0.91000
O3346       O  0.99203239  0.69592143  0.40714599    -0.84100
C3347       C  0.96488456  0.67162058  0.41041808     1.11000
O3348       O  0.96037570  0.81576498  0.49008909    -0.97200
Zr3349     Zr  0.97964203  0.78573411  0.46326884     1.88900
O3350       O  0.51123340  0.76968450  0.38583942    -0.73800
O3351       O  0.89969360  0.68676924  0.43913946    -0.53100
O3352       O  0.92956509  0.77497765  0.43839362    -0.97800
O3353       O  0.51196156  0.83691773  0.45170243    -0.55000
O3354       O  0.98016808  0.78372959  0.39697155    -0.74400
C3355       C  0.49307061  0.77938202  0.37750843     0.98000
O3356       O  0.54197103  0.72907398  0.39075614    -0.63200
O3357       O  0.59444627  0.80880509  0.56250774    -0.58000
O3358       O  0.57678999  0.77361905  0.43854293    -0.94700
O3359       O  0.59262766  0.80722744  0.48654875    -0.93100
O3360       O  0.56406830  0.72606677  0.56530041    -0.93400
O3361       O  0.53447037  0.68174031  0.51589683    -0.92200
C3362       C  0.59806127  0.79610368  0.45793558     1.16800
H3363       H  0.52842284  0.76006668  0.58889065     0.32800
H3364       H  0.99155167  0.68670559  0.47347486     0.43600
H3365       H  0.54087799  0.80746697  0.44797653     0.37100
H3366       H  0.92818289  0.74383072  0.50429101     0.33600
H3367       H  0.96928993  0.65682351  0.57238330     0.25400
H3368       H  0.88184980  0.66703722  0.44727805     0.31400
H3369       H  0.92102483  0.75578688  0.42424687     0.37300
H3370       H  0.57096819  0.74539454  0.57839986     0.31700
H3371       H  0.60585518  0.83105754  0.56600787     0.30600
H3372       H  0.58646384  0.86080559  0.52817405     0.32300
H3373       H  0.02078867  0.84995888  0.47100084     0.31300
H3374       H  0.54101387  0.68973656  0.49060505     0.35200
H3375       H  0.55533181  0.74740118  0.37595642     0.28000
H3376       H  0.93549399  0.76210423  0.61914137     0.32200
H3377       H  0.96904522  0.82060730  0.51568351     0.35100
H3378       H  0.58623173  0.80055902  0.58729425     0.27700
H3379       H  0.55659116  0.72468503  0.40360892     0.40500
H3380       H  0.90248336  0.64313297  0.52211089     0.30600
H3381       H  0.96968756  0.65091214  0.52988210     0.38200
H3382       H  0.49862888  0.84275966  0.43851401     0.30100
H3383       H  0.89357730  0.70148309  0.44517777     0.30100
H3384       H  0.93364687  0.77758490  0.58261649     0.30400
Zr3385     Zr  0.92818207  0.85386900  0.23116760     2.17500
O3386       O  0.94328776  0.87661457  0.29298487    -0.52000
O3387       O  0.87965676  0.83778453  0.26580516    -0.75200
O3388       O  0.95337126  0.91025873  0.22950059    -0.81900
O3389       O  0.92279429  0.78455421  0.26019862    -0.83700
O3390       O  0.94739499  0.92374242  0.17132074    -0.79300
O3391       O  0.95516948  0.83432916  0.26856298    -0.91000
O3392       O  0.83787285  0.80359056  0.23054937    -0.76900
O3393       O  0.89304310  0.85292955  0.18488556    -0.86400
O3394       O  0.89085420  0.80133850  0.21710962    -0.86100
O3395       O  0.95928899  0.87919607  0.17717502    -0.72900
O3396       O  0.95626402  0.83138454  0.20828977    -0.85000
Zr3397     Zr  0.91625233  0.80445539  0.09506117     2.26400
Zr3398     Zr  0.92370724  0.87815457  0.13124532     2.06300
Zr3399     Zr  0.91892731  0.77945735  0.19327653     2.10000
Zr3400     Zr  0.85660486  0.80066080  0.17085626     1.78800
O3401       O  0.96307597  0.77251648  0.19483991    -0.93800
O3402       O  0.82551165  0.82307690  0.15845067    -0.41600
O3403       O  0.88444809  0.77898625  0.14741829    -0.78200
O3404       O  0.88625726  0.82555238  0.11709327    -0.96900
O3405       O  0.95275869  0.85669149  0.10924878    -0.90200
O3406       O  0.95078918  0.80448473  0.14076169    -0.93100
C3407       C  0.85004732  0.81919667  0.26018346     1.00700
C3408       C  0.94714850  0.80682458  0.27516909     1.13600
C3409       C  0.95748398  0.93028583  0.20517125     1.04400
O3410       O  0.88483415  0.89239585  0.13258992    -0.95200
O3411       O  0.90767515  0.87324833  0.06511149    -0.91000
O3412       O  0.90392635  0.82950765  0.04761116    -0.84100
C3413       C  0.90184039  0.85256114  0.04085392     1.11000
O3414       O  0.52195845  0.88693534  0.20896205    -0.97200
Zr3415     Zr  0.98664520  0.85669984  0.15575930     1.88900
O3416       O  0.96576848  0.81907012  0.06330850    -0.73800
O3417       O  0.96095031  0.92127527  0.09449540    -0.53100
O3418       O  0.02876895  0.90825490  0.14231992    -0.97800
O3419       O  0.01821429  0.83440119  0.16473809    -0.55000
O3420       O  0.00557015  0.85854140  0.09540553    -0.74400
C3421       C  0.99471014  0.84058445  0.06769346     0.98000
O3422       O  0.89641208  0.77441700  0.03799354    -0.63200
O3423       O  0.89175855  0.73001903  0.22264294    -0.58000
O3424       O  0.88647516  0.74786954  0.09600031    -0.94700
O3425       O  0.88848620  0.73420562  0.15523623    -0.93100
O3426       O  0.82007159  0.74866775  0.18954064    -0.93400
O3427       O  0.81535569  0.76974344  0.12560539    -0.92200
C3428       C  0.87959195  0.72774779  0.12125366     1.16800
H3429       H  0.87933545  0.79027116  0.23862636     0.32800
H3430       H  0.87083061  0.82332942  0.09911265     0.43600
H3431       H  0.96072283  0.79429619  0.13132938     0.37100
H3432       H  0.97696050  0.89929517  0.18192632     0.33600
H3433       H  0.80438313  0.80804516  0.16752276     0.25400
H3434       H  0.95196838  0.93415520  0.09255809     0.31400
H3435       H  0.54736372  0.90410654  0.14023128     0.37300
H3436       H  0.83207267  0.73859750  0.18789835     0.31700
H3437       H  0.90756237  0.72982833  0.23900878     0.30600
H3438       H  0.95634695  0.75448385  0.17894135     0.32300
H3439       H  0.53796518  0.84913815  0.16811981     0.31300
H3440       H  0.82413857  0.76034986  0.11011420     0.35200
H3441       H  0.87606587  0.77240729  0.03261217     0.28000
H3442       H  0.93372434  0.88893397  0.29558595     0.32200
H3443       H  0.51050505  0.87786721  0.23209854     0.35100
H3444       H  0.87670743  0.73043111  0.23964496     0.27700
H3445       H  0.91041576  0.78755375  0.01820691     0.40500
H3446       H  0.89412381  0.91123499  0.11803932     0.30600
H3447       H  0.83356475  0.84025932  0.17619153     0.38200
H3448       H  0.01370116  0.82085129  0.14315712     0.30100
H3449       H  0.97973892  0.93294883  0.11064363     0.30100
H3450       H  0.96608765  0.89154695  0.29189819     0.30400
C3451       C  0.78558507  0.82636267  0.29053758     0.79600
N3452       N  0.81012453  0.82946026  0.27199706    -0.78700
C3453       C  0.82715384  0.81842431  0.28567316     0.82000
N3454       N  0.81922798  0.80358924  0.31883117    -0.78700
C3455       C  0.79389315  0.80011703  0.33739965     0.82100
N3456       N  0.77740998  0.81154947  0.32293465    -0.80400
C3457       C  0.99379386  0.78597546  0.33494245     0.79600
N3458       N  0.97122857  0.79166840  0.32424823    -0.78700
C3459       C  0.97099146  0.80110937  0.28924851     0.82000
N3460       N  0.99296651  0.80458399  0.26528177    -0.78700
C3461       C  0.51328233  0.80075300  0.27949645     0.82100
N3462       N  0.01588194  0.78982209  0.31039182    -0.80400
Zr3463     Zr  0.74823071  0.96851803  0.44087629     2.17500
O3464       O  0.76520558  0.93809925  0.40927601    -0.52000
O3465       O  0.72552625  0.97465050  0.38339271    -0.75200
O3466       O  0.71642202  0.91317171  0.43805962    -0.81900
O3467       O  0.81880809  0.55177655  0.42005802    -0.83700
O3468       O  0.67885924  0.89977653  0.48124125    -0.79300
O3469       O  0.80571098  0.50432815  0.42573032    -0.91000
O3470       O  0.70872005  0.00714510  0.39136541    -0.76900
O3471       O  0.70034755  0.96408454  0.45747717    -0.86400
O3472       O  0.76036707  0.52256304  0.44180670    -0.86100
O3473       O  0.73831735  0.94838444  0.50238860    -0.72900
O3474       O  0.79520325  0.50364331  0.48590769    -0.85000
Zr3475     Zr  0.74403166  0.52823490  0.56347080     2.26400
Zr3476     Zr  0.69032065  0.94394430  0.51848013     2.06300
Zr3477     Zr  0.80316406  0.55327569  0.48411093     2.10000
Zr3478     Zr  0.71334364  0.51827467  0.46005957     1.78800
O3479       O  0.85454155  0.56297387  0.50152293    -0.93800
O3480       O  0.65492598  0.98486555  0.43755391    -0.41600
O3481       O  0.75525512  0.54937303  0.50237134    -0.78200
O3482       O  0.69793371  0.99356047  0.51752675    -0.96900
O3483       O  0.73166745  0.97380620  0.56254048    -0.90200
O3484       O  0.79295874  0.53433084  0.54633830    -0.93100
C3485       C  0.71437396  0.99043485  0.37129088     1.00700
C3486       C  0.81437198  0.52731709  0.40556487     1.13600
C3487       C  0.69190499  0.89342000  0.45532639     1.04400
O3488       O  0.63634145  0.91975451  0.49643696    -0.95200
O3489       O  0.65972834  0.94806664  0.56669706    -0.91000
O3490       O  0.68879084  0.99605424  0.59029264    -0.84100
C3491       C  0.66381850  0.96951885  0.58825390     1.11000
O3492       O  0.80142492  0.94957383  0.52473916    -0.97200
Zr3493     Zr  0.78001566  0.97963067  0.54489282     1.88900
O3494       O  0.76774276  0.52522454  0.62119346    -0.73800
O3495       O  0.67758539  0.90332907  0.56175905    -0.53100
O3496       O  0.76689213  0.93426227  0.57912936    -0.97800
O3497       O  0.83966270  0.51239658  0.56627642    -0.55000
O3498       O  0.78316590  0.99023202  0.61036704    -0.74400
C3499       C  0.77919641  0.50989249  0.63337446     0.98000
O3500       O  0.72614291  0.55255782  0.60572263    -0.63200
O3501       O  0.83389614  0.60402033  0.45857474    -0.58000
O3502       O  0.77253598  0.58355836  0.55951263    -0.94700
O3503       O  0.81131530  0.59731665  0.51808639    -0.93100
O3504       O  0.73469072  0.56740457  0.43100053    -0.93400
O3505       O  0.68617938  0.54316917  0.47950462    -0.92200
C3506       C  0.79710537  0.60344963  0.54253339     1.16800
H3507       H  0.76493204  0.53112319  0.41737620     0.32800
H3508       H  0.67902695  0.99293967  0.52367325     0.43600
H3509       H  0.80954684  0.54818798  0.56313641     0.37100
H3510       H  0.73629067  0.92890020  0.50299021     0.33600
H3511       H  0.65305650  0.99688746  0.41765667     0.25400
H3512       H  0.68555706  0.91358974  0.58610639     0.31400
H3513       H  0.74398456  0.92061113  0.57565142     0.37300
H3514       H  0.74713517  0.58245618  0.45074626     0.31700
H3515       H  0.85345578  0.60602842  0.44981989     0.30600
H3516       H  0.86243919  0.57908563  0.52075929     0.32300
H3517       H  0.84554639  0.00803306  0.53214842     0.31300
H3518       H  0.68689976  0.54323932  0.50691662     0.35200
H3519       H  0.74463763  0.56717891  0.62087153     0.28000
H3520       H  0.77703813  0.93443700  0.42841879     0.32200
H3521       H  0.80049498  0.94979204  0.49734603     0.35100
H3522       H  0.82249702  0.60349906  0.43577272     0.27700
H3523       H  0.72095709  0.56502820  0.59023498     0.40500
H3524       H  0.63355546  0.93675146  0.49056805     0.30600
H3525       H  0.65227681  0.96683618  0.42459862     0.38200
H3526       H  0.85127387  0.51736689  0.54281695     0.30100
H3527       H  0.65451663  0.89217678  0.56376773     0.30100
H3528       H  0.78121977  0.95111861  0.39110757     0.30400
Zr3529     Zr  0.61528058  0.70306226  0.90179314     2.17500
O3530       O  0.66261770  0.73023983  0.94032978    -0.52000
O3531       O  0.58244187  0.69564352  0.95398789    -0.75200
O3532       O  0.63754115  0.75876904  0.90457598    -0.81900
O3533       O  0.61315160  0.62826715  0.91429481    -0.83700
O3534       O  0.61296697  0.76829921  0.85827404    -0.79300
O3535       O  0.62961861  0.67404907  0.94142667    -0.91000
O3536       O  0.53340468  0.65523618  0.94236902    -0.76900
O3537       O  0.56980427  0.70187053  0.87989047    -0.86400
O3538       O  0.57406722  0.65099722  0.89704698    -0.86100
O3539       O  0.62938992  0.72616279  0.84199132    -0.72900
O3540       O  0.63261449  0.67842393  0.86071542    -0.85000
Zr3541     Zr  0.55941831  0.64879812  0.77113813     2.26400
Zr3542     Zr  0.58318301  0.72355672  0.81947939     2.06300
Zr3543     Zr  0.58998296  0.62690099  0.85449756     2.10000
Zr3544     Zr  0.52906517  0.64975300  0.87510948     1.78800
O3545       O  0.63062796  0.61731810  0.83751705    -0.93800
O3546       O  0.50146910  0.67582043  0.88641811    -0.41600
O3547       O  0.54452230  0.62540954  0.83108356    -0.78200
O3548       O  0.54127587  0.67146075  0.81478937    -0.96900
O3549       O  0.60074586  0.70070303  0.77660135    -0.90200
O3550       O  0.60436204  0.64950086  0.79473233    -0.93100
C3551       C  0.55520300  0.67455834  0.96429099     1.00700
C3552       C  0.62627773  0.64776683  0.94069789     1.13600
C3553       C  0.63233689  0.77679480  0.88571250     1.04400
O3554       O  0.54924274  0.74199423  0.83551348    -0.95200
O3555       O  0.54804514  0.71645289  0.76920318    -0.91000
O3556       O  0.53268446  0.67161665  0.74021733    -0.84100
C3557       C  0.53202185  0.69588665  0.74477350     1.11000
O3558       O  0.69654772  0.73183487  0.83134838    -0.97200
Zr3559     Zr  0.64544500  0.70148489  0.80106715     1.88900
O3560       O  0.59626804  0.65901610  0.72037521    -0.73800
O3561       O  0.61419394  0.76508038  0.77729300    -0.53100
O3562       O  0.67805688  0.75250583  0.77698053    -0.97800
O3563       O  0.67766184  0.68022610  0.78982851    -0.55000
O3564       O  0.64554318  0.69742315  0.73522128    -0.74400
C3565       C  0.62520918  0.67799100  0.71252956     0.98000
O3566       O  0.52495451  0.62244396  0.71792763    -0.63200
O3567       O  0.55884870  0.57838292  0.88534225    -0.58000
O3568       O  0.53317633  0.59259037  0.77302297    -0.94700
O3569       O  0.55917910  0.58229985  0.81635570    -0.93100
O3570       O  0.49930415  0.59778166  0.89700204    -0.93400
O3571       O  0.97489992  0.61843424  0.84857349    -0.92200
C3572       C  0.53880784  0.57421271  0.79021700     1.16800
H3573       H  0.56990614  0.64083957  0.92050932     0.32800
H3574       H  0.52193239  0.66932607  0.80653113     0.43600
H3575       H  0.60997275  0.63822346  0.77879981     0.37100
H3576       H  0.64698893  0.74675868  0.84317150     0.33600
H3577       H  0.51489711  0.69230918  0.90426139     0.25400
H3578       H  0.61248480  0.75521590  0.75313427     0.31400
H3579       H  0.66440163  0.75485781  0.75920470     0.37300
H3580       H  0.49843148  0.58522343  0.87580070     0.31700
H3581       H  0.57346928  0.57151194  0.89043373     0.30600
H3582       H  0.61974038  0.59851967  0.82232381     0.32300
H3583       H  0.66564664  0.66340029  0.77186309     0.31300
H3584       H  0.97686420  0.61169247  0.82363381     0.35200
H3585       H  0.53298616  0.61061292  0.70644989     0.28000
H3586       H  0.65891289  0.74246428  0.95817368     0.32200
H3587       H  0.69191679  0.73263577  0.85774915     0.35100
H3588       H  0.55408659  0.58322839  0.90998067     0.27700
H3589       H  0.50438559  0.60717089  0.72815217     0.40500
H3590       H  0.56121738  0.76374854  0.82917291     0.30600
H3591       H  0.50303826  0.68630683  0.86297840     0.38200
H3592       H  0.67728363  0.67026129  0.81327418     0.30100
H3593       H  0.60202997  0.77485684  0.77372138     0.30100
H3594       H  0.67911930  0.74513425  0.92381370     0.30400
C3595       C  0.63144176  0.64753942  0.62296552     0.79600
N3596       N  0.66063135  0.66899444  0.61295012    -0.78700
C3597       C  0.67796569  0.69443813  0.63326875     0.82000
N3598       N  0.66591153  0.69853642  0.66471584    -0.78700
C3599       C  0.63674382  0.67632325  0.67591424     0.82100
N3600       N  0.61960724  0.65092305  0.65482077    -0.80400
C3601       C  0.50924070  0.69980454  0.72400304     0.79600
N3602       N  0.50878849  0.70040528  0.68623415    -0.78700
C3603       C  0.48868964  0.70653172  0.66867528     0.82000
N3604       N  0.96159326  0.69880045  0.68508976    -0.78700
C3605       C  0.95649780  0.68816820  0.71993551     0.82100
N3606       N  0.48970100  0.70521488  0.74367299    -0.80400
Zr3607     Zr  0.70132537  0.61435334  0.11203872     2.17500
O3608       O  0.73141777  0.65618753  0.07010133    -0.52000
O3609       O  0.69653800  0.58628836  0.05558197    -0.75200
O3610       O  0.75837840  0.63990449  0.11579327    -0.81900
O3611       O  0.62544007  0.60355060  0.07926225    -0.83700
O3612       O  0.76779417  0.61344825  0.15796566    -0.79300
O3613       O  0.67554183  0.63899751  0.08864870    -0.91000
O3614       O  0.66351365  0.53549806  0.06208923    -0.76900
O3615       O  0.70288089  0.57174125  0.13220967    -0.86400
O3616       O  0.64913520  0.57123538  0.10544558    -0.86100
O3617       O  0.72006204  0.62708361  0.17492139    -0.72900
O3618       O  0.66879976  0.62536177  0.14877976    -0.85000
Zr3619     Zr  0.63682702  0.54988854  0.22829762     2.26400
Zr3620     Zr  0.72078358  0.58391623  0.19526109     2.06300
Zr3621     Zr  0.61677977  0.58160276  0.14264392     2.10000
Zr3622     Zr  0.65044990  0.52900374  0.12680407     1.78800
O3623       O  0.60248744  0.61810074  0.15877458    -0.93800
O3624       O  0.68018386  0.50454211  0.12034393    -0.41600
O3625       O  0.61798103  0.53860969  0.16487515    -0.78200
O3626       O  0.66881089  0.53960282  0.18928481    -0.96900
O3627       O  0.68859265  0.59328681  0.23440406    -0.90200
O3628       O  0.63401722  0.59191547  0.20655564    -0.93100
C3629       C  0.68129563  0.55894828  0.04292829     1.00700
C3630       C  0.65173284  0.62529179  0.06709707     1.13600
C3631       C  0.77670630  0.63363838  0.13263785     1.04400
O3632       O  0.75206684  0.56106777  0.19001239    -0.95200
O3633       O  0.71236694  0.54831099  0.24359160    -0.91000
O3634       O  0.66170446  0.52642723  0.26148424    -0.84100
C3635       C  0.68875306  0.52929984  0.26258155     1.11000
O3636       O  0.71336583  0.68667661  0.18913059    -0.97200
Zr3637     Zr  0.68603925  0.63503779  0.21231228     1.88900
O3638       O  0.63625480  0.57755037  0.28344833    -0.73800
O3639       O  0.75610648  0.61881070  0.24311014    -0.53100
O3640       O  0.73495043  0.66600207  0.24690482    -0.97800
O3641       O  0.65886844  0.66161422  0.22306582    -0.55000
O3642       O  0.67172173  0.62775736  0.27670763    -0.74400
C3643       C  0.65179920  0.60507497  0.29562836     0.98000
O3644       O  0.60816224  0.50774449  0.27075133    -0.63200
O3645       O  0.56878633  0.55426110  0.10541669    -0.58000
O3646       O  0.57960793  0.52124274  0.21938302    -0.94700
O3647       O  0.56872617  0.54484636  0.17423651    -0.93100
O3648       O  0.60155047  0.49787167  0.09217446    -0.93400
O3649       O  0.62205751  0.97686678  0.14363996    -0.92200
C3650       C  0.56043306  0.52499417  0.19989634     1.16800
H3651       H  0.64152314  0.56761365  0.08015531     0.32800
H3652       H  0.66834496  0.52153323  0.19634599     0.43600
H3653       H  0.61952842  0.59438976  0.22108282     0.37100
H3654       H  0.74067951  0.64517156  0.17676509     0.33600
H3655       H  0.67263098  0.49301371  0.09670390     0.25400
H3656       H  0.76290699  0.60700420  0.25732981     0.31400
H3657       H  0.73133008  0.67938615  0.26275128     0.37300
H3658       H  0.60020169  0.51195892  0.07505278     0.31700
H3659       H  0.56595529  0.57002190  0.09428394     0.30600
H3660       H  0.58236761  0.60597973  0.17171689     0.32300
H3661       H  0.67202822  0.67755311  0.24164888     0.31300
H3662       H  0.61380392  0.97690104  0.16837785     0.35200
H3663       H  0.59292118  0.51118060  0.28331888     0.28000
H3664       H  0.74508808  0.65144809  0.05603301     0.32200
H3665       H  0.73425468  0.69107560  0.18188310     0.35100
H3666       H  0.57400317  0.54552083  0.08441152     0.27700
H3667       H  0.59540313  0.48943774  0.25505266     0.40500
H3668       H  0.74076946  0.54465645  0.17134409     0.30600
H3669       H  0.70184597  0.52117259  0.11525478     0.38200
H3670       H  0.63971950  0.64721452  0.23661023     0.30100
H3671       H  0.77500473  0.63392672  0.22970726     0.30100
H3672       H  0.74559641  0.67430510  0.08547999     0.30400
C3673       C  0.61130501  0.60181062  0.38223954     0.79600
N3674       N  0.61735833  0.59420989  0.34868977    -0.78700
C3675       C  0.64608815  0.61166266  0.33349355     0.82000
N3676       N  0.66863226  0.63699163  0.35197937    -0.78700
C3677       C  0.66249412  0.64451440  0.38552516     0.82100
N3678       N  0.63383425  0.62696736  0.40035084    -0.80400
C3679       C  0.69208693  0.50679204  0.28283035     0.79600
N3680       N  0.68536192  0.48106906  0.26462303    -0.78700
C3681       C  0.69054086  0.95855941  0.27747047     0.82000
N3682       N  0.70085528  0.96362538  0.31301355    -0.78700
C3683       C  0.70792862  0.49106786  0.33522012     0.82100
N3684       N  0.70315582  0.51175444  0.31841712    -0.80400
C3685       C  0.65739944  0.63299346  0.02707130     0.79600
N3686       N  0.68621924  0.64137581  0.01425676    -0.78700
C3687       C  0.69394598  0.64923764  0.97843814     0.82000
N3688       N  0.67303561  0.64977800  0.95566743    -0.78700
C3689       C  0.64458011  0.64228702  0.96748848     0.82100
N3690       N  0.63628261  0.63381135  0.00354512    -0.80400
Zr3691     Zr  0.55016955  0.91872353  0.77407793     2.17500
O3692       O  0.50616849  0.90487753  0.73240574    -0.52000
O3693       O  0.57757316  0.93751005  0.71635639    -0.75200
O3694       O  0.53001744  0.95291863  0.77420860    -0.81900
O3695       O  0.55655303  0.85099611  0.74989521    -0.83700
O3696       O  0.55934608  0.99073759  0.81568496    -0.79300
O3697       O  0.52305009  0.86622392  0.75425425    -0.91000
O3698       O  0.62947552  0.95565123  0.72380300    -0.76900
O3699       O  0.59717664  0.96444380  0.79145857    -0.86400
O3700       O  0.59164641  0.90898062  0.77171407    -0.86100
O3701       O  0.54019869  0.92873969  0.83548740    -0.72900
O3702       O  0.53581210  0.87697851  0.81513683    -0.85000
Zr3703     Zr  0.61579127  0.92511381  0.89472746     2.26400
Zr3704     Zr  0.58798177  0.97425292  0.85331499     2.06300
Zr3705     Zr  0.57815351  0.86811307  0.81331683     2.10000
Zr3706     Zr  0.63797650  0.95407206  0.79003461     1.78800
O3707       O  0.53633526  0.81632846  0.82594569    -0.93800
O3708       O  0.66645307  0.00839991  0.77921693    -0.41600
O3709       O  0.62547754  0.91417390  0.83300362    -0.78200
O3710       O  0.63023655  0.96548193  0.85164414    -0.96900
O3711       O  0.57438852  0.93441774  0.89681827    -0.90200
O3712       O  0.56953767  0.87886463  0.87521938    -0.93100
C3713       C  0.60525799  0.94868119  0.70389401     1.00700
C3714       C  0.53642576  0.85585180  0.73486827     1.13600
C3715       C  0.53799913  0.97815811  0.79035070     1.04400
O3716       O  0.62296678  0.53045172  0.83716186    -0.95200
O3717       O  0.62441831  0.00356754  0.90267333    -0.91000
O3718       O  0.64255283  0.97514645  0.92650228    -0.84100
C3719       C  0.64207782  0.99966715  0.92461214     1.11000
O3720       O  0.97572386  0.87217775  0.85248052    -0.97200
Zr3721     Zr  0.52826196  0.88843052  0.87705672     1.88900
O3722       O  0.58552374  0.89585761  0.94824663    -0.73800
O3723       O  0.55788270  0.98410371  0.89702957    -0.53100
O3724       O  0.50446300  0.91196952  0.90997623    -0.97800
O3725       O  0.49516010  0.83375162  0.88520887    -0.55000
O3726       O  0.53396575  0.87881165  0.94101523    -0.74400
C3727       C  0.55713601  0.88176976  0.95961481     0.98000
O3728       O  0.65840476  0.94089683  0.93973051    -0.63200
O3729       O  0.60770050  0.84966297  0.78222894    -0.58000
O3730       O  0.64023589  0.89515169  0.88981678    -0.94700
O3731       O  0.60828694  0.85440703  0.85296065    -0.93100
O3732       O  0.66568445  0.93292707  0.76072172    -0.93400
O3733       O  0.69350575  0.98026030  0.80596993    -0.92200
C3734       C  0.63129645  0.86891794  0.87602972     1.16800
H3735       H  0.59465671  0.90352946  0.74727580     0.32800
H3736       H  0.64978924  0.98346203  0.85889172     0.43600
H3737       H  0.56542469  0.86223407  0.89097902     0.37100
H3738       H  0.52280744  0.93163502  0.83607102     0.33600
H3739       H  0.65581371  0.51404320  0.75994395     0.25400
H3740       H  0.56442639  0.00542827  0.89271702     0.31400
H3741       H  0.99096470  0.89760982  0.92540400     0.37300
H3742       H  0.66086332  0.91520200  0.77589002     0.31700
H3743       H  0.59211368  0.82817981  0.77607759     0.30600
H3744       H  0.51909134  0.81236987  0.80873284     0.32300
H3745       H  0.98152113  0.83409807  0.90171910     0.31300
H3746       H  0.69418695  0.97636736  0.83267865     0.35200
H3747       H  0.65258134  0.92265862  0.95440485     0.28000
H3748       H  0.51277011  0.92264792  0.71643893     0.32200
H3749       H  0.97335858  0.86138830  0.82885581     0.35100
H3750       H  0.61347359  0.86000615  0.75805177     0.27700
H3751       H  0.67678170  0.94488268  0.92529055     0.40500
H3752       H  0.61747663  0.54142741  0.85486438     0.30600
H3753       H  0.66314406  0.01719236  0.80172336     0.38200
H3754       H  0.50971268  0.82648114  0.88715482     0.30100
H3755       H  0.53606531  0.97213940  0.88745925     0.30100
H3756       H  0.48908633  0.90304137  0.74773552     0.30400
C3757       C  0.51874155  0.87379666  0.64239645     0.79600
N3758       N  0.52316145  0.85577755  0.61998889    -0.78700
C3759       C  0.53145150  0.83685732  0.63361038     0.82000
N3760       N  0.53518377  0.83549027  0.67109185    -0.78700
C3761       C  0.53143436  0.85425628  0.69412101     0.82100
N3762       N  0.52273025  0.87274813  0.67942916    -0.80400
C3763       C  0.58916852  0.96288033  0.60903039     0.79600
N3764       N  0.61470773  0.96730276  0.59101616    -0.78700
C3765       C  0.63677749  0.96434357  0.60891438     0.82000
N3766       N  0.63426732  0.95834578  0.64575655    -0.78700
C3767       C  0.60873035  0.95391625  0.66398280     0.82100
N3768       N  0.58640202  0.95589947  0.64543043    -0.80400
C3769       C  0.56617698  0.84426116  0.04055059     0.79600
N3770       N  0.57173767  0.85986465  0.00881934    -0.78700
C3771       C  0.55066282  0.86622229  0.99530299     0.82000
N3772       N  0.52331658  0.85634277  0.01361671    -0.78700
C3773       C  0.01895312  0.84448147  0.04225184     0.82100
N3774       N  0.04077782  0.83911020  0.05591609    -0.80400
C3775       C  0.71275932  0.57567977  0.94899241     0.79600
N3776       N  0.70867044  0.57784191  0.98545153    -0.78700
C3777       C  0.68438997  0.55484480  0.00350623     0.82000
N3778       N  0.66334221  0.52897925  0.98474423    -0.78700
C3779       C  0.66685559  0.52672878  0.94778829     0.82100
N3780       N  0.69147165  0.55007166  0.93021160    -0.80400
C3781       C  0.98360608  0.51191308  0.22107038     0.79600
N3782       N  0.51281778  0.52317302  0.21459443    -0.78700
C3783       C  0.52671450  0.50736989  0.20894735     0.82000
N3784       N  0.50989740  0.97955334  0.21066056    -0.78700
C3785       C  0.97766696  0.96322921  0.21486329     0.82100
N3786       N  0.96427336  0.97994225  0.22001423    -0.80400
C3787       C  0.80890076  0.68003278  0.55344479     0.79600
N3788       N  0.79424666  0.64920446  0.55076305    -0.78700
C3789       C  0.81111798  0.63572066  0.55156643     0.82000
N3790       N  0.84256718  0.65310139  0.55382095    -0.78700
C3791       C  0.85788263  0.68359720  0.55649477     0.82100
N3792       N  0.84101847  0.69734580  0.55566571    -0.80400
C3793       C  0.68048229  0.81707253  0.44207778     0.79600
N3794       N  0.64842645  0.79937238  0.44408610    -0.78700
C3795       C  0.63117701  0.81263299  0.44667780     0.82000
N3796       N  0.64609891  0.84315479  0.44822066    -0.78700
C3797       C  0.67749069  0.86100350  0.44621762     0.82100
N3798       N  0.69476783  0.84792423  0.44392406    -0.80400
C3799       C  0.52086521  0.99336779  0.78097592     0.79600
N3800       N  0.98958659  0.97752672  0.77671853    -0.78700
C3801       C  0.97251391  0.99088901  0.77485092     0.82000
N3802       N  0.98800262  0.52224904  0.77776071    -0.78700
C3803       C  0.52161289  0.54139241  0.78073915     0.82100
N3804       N  0.53777455  0.52724050  0.78373950    -0.80400
C3805       C  0.64907443  0.85465025  0.88604208     0.79600
N3806       N  0.68079551  0.87120342  0.88625794    -0.78700
C3807       C  0.69760526  0.85770035  0.88984450     0.82000
N3808       N  0.68206512  0.82682215  0.89303256    -0.78700
C3809       C  0.64998666  0.80991461  0.89319548     0.82100
N3810       N  0.63399042  0.82411458  0.88865451    -0.80400
C3811       C  0.85525772  0.64737570  0.11674285     0.79600
N3812       N  0.82412311  0.63382568  0.12196762    -0.78700
C3813       C  0.81003176  0.64978683  0.12211988     0.82000
N3814       N  0.82779901  0.68050470  0.11792866    -0.78700
C3815       C  0.85945342  0.69482466  0.11279538     0.82100
N3816       N  0.87304933  0.67801691  0.11296078    -0.80400
C3817       C  0.56821775  0.57467260  0.57708248    -0.23100
C3818       C  0.58507028  0.56040216  0.57265454     0.08900
C3819       C  0.61794983  0.57715930  0.57821023     0.09300
C3820       C  0.63242355  0.60650902  0.59221931    -0.18000
C3821       C  0.61496659  0.61927610  0.60154930    -0.28400
C3822       C  0.58286062  0.60412325  0.59182508     0.17600
C3823       C  0.56831804  0.52713318  0.57322645     0.11600
C3824       C  0.63771018  0.56350318  0.57294288    -0.12800
H3825       H  0.65730128  0.61872991  0.59862866     0.11900
C3826       C  0.56348396  0.61807213  0.59692515    -0.23600
H3827       H  0.54314004  0.56191558  0.57204013     0.07500
C3828       C  0.55683170  0.51251197  0.60743520     0.03800
C3829       C  0.55713486  0.48635049  0.61461799    -0.20800
C3830       C  0.57258439  0.47743847  0.59046825    -0.13100
C3831       C  0.57713741  0.48771060  0.55344427     0.12500
C3832       C  0.57431419  0.51238382  0.54507213    -0.23600
C3833       C  0.55012163  0.52733870  0.63897205    -0.06600
H3834       H  0.55169814  0.97541377  0.64642894     0.14100
C3835       C  0.58794404  0.47547569  0.52323205    -0.16800
H3836       H  0.58253735  0.52330239  0.51861687     0.08400
H3837       H  0.54461174  0.60456825  0.61694025     0.06300
H3838       H  0.55272460  0.61810702  0.56993023     0.07500
H3839       H  0.57740869  0.64184282  0.60698648     0.06500
H3840       H  0.63641619  0.55649253  0.54359858     0.01400
H3841       H  0.62954100  0.54368682  0.59124388     0.01900
H3842       H  0.66277540  0.57986620  0.57984083     0.05400
H3843       H  0.54138105  0.51264897  0.66370307     0.04400
H3844       H  0.53221546  0.53243306  0.63046351    -0.01400
H3845       H  0.57184735  0.54880687  0.64736409     0.00100
H3846       H  0.58819903  0.45522189  0.53184443     0.03700
H3847       H  0.61181770  0.49326589  0.51455266     0.05700
H3848       H  0.57170992  0.46866261  0.49900927     0.06500
C3849       C  0.58937466  0.81582005  0.23971019    -0.23100
C3850       C  0.60279415  0.84666940  0.23164703     0.08900
C3851       C  0.58336543  0.85872080  0.22974771     0.09300
C3852       C  0.55282827  0.84130795  0.24198859    -0.18000
C3853       C  0.54100439  0.81234574  0.25613214    -0.28400
C3854       C  0.55851669  0.79846663  0.25251500     0.17600
C3855       C  0.63657441  0.86806438  0.23880984     0.11600
C3856       C  0.59542372  0.89120541  0.21954820    -0.12800
H3857       H  0.53924323  0.85180791  0.24423340     0.11900
C3858       C  0.54576813  0.76608739  0.26306485    -0.23600
H3859       H  0.60402099  0.80632837  0.24022632     0.07500
C3860       C  0.64643590  0.87433014  0.27625666     0.03800
C3861       C  0.66765138  0.90417356  0.28694089    -0.20800
C3862       C  0.67850430  0.92797239  0.26149141    -0.13100
C3863       C  0.67347485  0.92076717  0.22315833     0.12500
C3864       C  0.65370398  0.89030749  0.21228230    -0.23600
C3865       C  0.63079499  0.85095096  0.30621020    -0.06600
H3866       H  0.67244768  0.90901697  0.31629315     0.14100
C3867       C  0.68605261  0.94419611  0.19319014    -0.16800
H3868       H  0.64744485  0.88503316  0.18331279     0.08400
H3869       H  0.55978259  0.76529159  0.28648445     0.06300
H3870       H  0.54727615  0.75359905  0.23900482     0.07500
H3871       H  0.52087400  0.75426179  0.27116988     0.06500
H3872       H  0.60496331  0.89572203  0.19116983     0.01400
H3873       H  0.61359192  0.90688912  0.23983072     0.01900
H3874       H  0.57676745  0.89640372  0.21975587     0.05400
H3875       H  0.64218845  0.85977878  0.33375708     0.04400
H3876       H  0.63191208  0.83073880  0.29971068    -0.01400
H3877       H  0.60595833  0.84410919  0.30863517     0.00100
H3878       H  0.70354815  0.96718538  0.20356630     0.03700
H3879       H  0.70419165  0.44097179  0.17974384     0.05700
H3880       H  0.66642081  0.94466844  0.17959977     0.06500
C3881       C  0.80645504  0.74871270  0.90562462    -0.23100
C3882       C  0.81438920  0.72994034  0.92381450     0.08900
C3883       C  0.84534890  0.74213404  0.93637502     0.09300
C3884       C  0.86500686  0.77371117  0.93967300    -0.18000
C3885       C  0.85418332  0.79274480  0.92947887    -0.28400
C3886       C  0.82593165  0.78022667  0.90838590     0.17600
C3887       C  0.78804285  0.70281530  0.94100441     0.11600
C3888       C  0.85661767  0.72174000  0.94817594    -0.12800
H3889       H  0.88768759  0.78331999  0.95318159     0.11900
C3890       C  0.81416950  0.79907902  0.89201897    -0.23600
H3891       H  0.78297091  0.73887984  0.89422362     0.07500
C3892       C  0.78044008  0.70489597  0.97812808     0.03800
C3893       C  0.74989861  0.68540111  0.98996016    -0.20800
C3894       C  0.72662566  0.66375021  0.96615642    -0.13100
C3895       C  0.73454970  0.66054182  0.92958167     0.12500
C3896       C  0.76543193  0.67976134  0.91775554    -0.23600
C3897       C  0.80325811  0.72969568  0.00449678    -0.06600
H3898       H  0.74345103  0.68933988  0.01684605     0.14100
C3899       C  0.71034135  0.63845385  0.90205392    -0.16800
H3900       H  0.77117782  0.67885811  0.88913170     0.08400
H3901       H  0.80889609  0.81038333  0.91429779     0.06300
H3902       H  0.79223779  0.78498629  0.87559620     0.07500
H3903       H  0.83188970  0.81615046  0.87308806     0.06500
H3904       H  0.85536754  0.70783144  0.92405618     0.01400
H3905       H  0.84186629  0.70623879  0.97035288     0.01900
H3906       H  0.88123023  0.73498765  0.95849496     0.05400
H3907       H  0.79259955  0.72849396  0.03169230     0.04400
H3908       H  0.81119859  0.75227230  0.99275098    -0.01400
H3909       H  0.82368931  0.72761763  0.01005097     0.00100
H3910       H  0.72124879  0.63723960  0.87608533     0.03700
H3911       H  0.69387186  0.64563223  0.89436071     0.05700
H3912       H  0.69712524  0.61546504  0.91403360     0.06500
C3913       C  0.80373839  0.60384235  0.74891136    -0.23100
C3914       C  0.83125054  0.61114955  0.76826964     0.08900
C3915       C  0.83096248  0.58915950  0.79136178     0.09300
C3916       C  0.80613368  0.55912983  0.78767628    -0.18000
C3917       C  0.78501354  0.55093970  0.75770352    -0.28400
C3918       C  0.78035311  0.57335477  0.74295168     0.17600
C3919       C  0.86145000  0.63543535  0.75371340     0.11600
C3920       C  0.85864839  0.59624425  0.81554873    -0.12800
H3921       H  0.80756723  0.54182999  0.80250213     0.11900
C3922       C  0.75307594  0.56562481  0.71779321    -0.23600
H3923       H  0.80292652  0.62116664  0.73330508     0.07500
C3924       C  0.87074559  0.63175284  0.71820174     0.03800
C3925       C  0.90180914  0.65044622  0.70823619    -0.20800
C3926       C  0.92417533  0.67217974  0.73282047    -0.13100
C3927       C  0.91490938  0.67695657  0.76762158     0.12500
C3928       C  0.88334176  0.65868571  0.77747525    -0.23600
C3929       C  0.84877387  0.60692619  0.69131996    -0.06600
H3930       H  0.90908418  0.64699202  0.68147257     0.14100
C3931       C  0.93744109  0.70084622  0.79474525    -0.16800
H3932       H  0.87611157  0.66148130  0.80457652     0.08400
H3933       H  0.76158469  0.57478527  0.68976689     0.06300
H3934       H  0.73639188  0.54077430  0.71554460     0.07500
H3935       H  0.74026920  0.57582266  0.72910696     0.06500
H3936       H  0.86371260  0.61471092  0.83516627     0.01400
H3937       H  0.87946677  0.60333494  0.79827065     0.01900
H3938       H  0.85420026  0.57640068  0.83198378     0.05400
H3939       H  0.86076091  0.60691344  0.66569911     0.04400
H3940       H  0.82950331  0.61009008  0.68268881    -0.01400
H3941       H  0.83910570  0.58448228  0.70434223     0.00100
H3942       H  0.92974127  0.71686160  0.80054212     0.03700
H3943       H  0.96164907  0.71410986  0.78428845     0.05700
H3944       H  0.93773335  0.68999424  0.82104080     0.06500
C3945       C  0.92571909  0.90896747  0.55786096    -0.23100
C3946       C  0.94803363  0.92808389  0.58443761     0.08900
C3947       C  0.94296070  0.94840608  0.60430546     0.09300
C3948       C  0.91228573  0.94194842  0.60688837    -0.18000
C3949       C  0.88787105  0.91646171  0.58825633    -0.28400
C3950       C  0.89581375  0.90447401  0.55803215     0.17600
C3951       C  0.96903463  0.91875949  0.59952944     0.11600
C3952       C  0.96933983  0.97502404  0.62475639    -0.12800
H3953       H  0.90702936  0.95390817  0.62724671     0.11900
C3954       C  0.87272654  0.88478974  0.52816729    -0.23600
H3955       H  0.93036375  0.89515478  0.53980241     0.07500
C3956       C  0.96282607  0.90443444  0.63442489     0.03800
C3957       C  0.98041593  0.89237553  0.64625416    -0.20800
C3958       C  0.00286402  0.89250258  0.62368065    -0.13100
C3959       C  0.00685263  0.90410001  0.58728178     0.12500
C3960       C  0.99079958  0.91822348  0.57628411    -0.23600
C3961       C  0.93595521  0.89933500  0.65821433    -0.06600
H3962       H  0.97497400  0.88079654  0.67248061     0.14100
C3963       C  0.02650498  0.90041860  0.55916924    -0.16800
H3964       H  0.99390435  0.92741810  0.54867573     0.08400
H3965       H  0.88302644  0.89360980  0.50061254     0.06300
H3966       H  0.85084756  0.88498692  0.52937975     0.07500
H3967       H  0.86720265  0.86120509  0.53063204     0.06500
H3968       H  0.98664541  0.99017612  0.60412379     0.01400
H3969       H  0.98088625  0.96772592  0.64474209     0.01900
H3970       H  0.96115611  0.98802865  0.64008842     0.05400
H3971       H  0.93322565  0.88556939  0.68295672     0.04400
H3972       H  0.91368142  0.88698420  0.64199807    -0.01400
H3973       H  0.93980031  0.92113284  0.66848058     0.00100
H3974       H  0.01569995  0.87609121  0.55203897     0.03700
H3975       H  0.55223462  0.90662581  0.57487140     0.05700
H3976       H  0.52980875  0.90877602  0.53704181     0.06500
C3977       C  0.79217193  0.06306726  0.89733087    -0.23100
C3978       C  0.81186281  0.59226311  0.90253039     0.08900
C3979       C  0.84334535  0.60381905  0.91295407     0.09300
C3980       C  0.85142231  0.58442810  0.92924567    -0.18000
C3981       C  0.82880566  0.55377849  0.93526793    -0.28400
C3982       C  0.79996638  0.04354699  0.91372033     0.17600
C3983       C  0.79876094  0.61196398  0.90087135     0.11600
C3984       C  0.86841439  0.63675469  0.90900121    -0.12800
H3985       H  0.87533630  0.59360119  0.93870307     0.11900
C3986       C  0.77479129  0.01045146  0.91680966    -0.23600
H3987       H  0.76830725  0.05353628  0.88756158     0.07500
C3988       C  0.77301179  0.60336396  0.87700825     0.03800
C3989       C  0.74453175  0.59581262  0.89264103    -0.20800
C3990       C  0.74256579  0.59814283  0.93116684    -0.13100
C3991       C  0.77083484  0.61692847  0.95168309     0.12500
C3992       C  0.79919773  0.62489168  0.93516078    -0.23600
C3993       C  0.77431809  0.59695978  0.83682343    -0.06600
H3994       H  0.72339632  0.58442608  0.87565726     0.14100
C3995       C  0.77178385  0.62574615  0.99172703    -0.16800
H3996       H  0.82015292  0.63480226  0.95242894     0.08400
H3997       H  0.78179706  0.99616971  0.90247173     0.06300
H3998       H  0.75227177  0.00525179  0.90404345     0.07500
H3999       H  0.77053078  0.00409664  0.94643667     0.06500
H4000       H  0.87737738  0.64714003  0.93682338     0.01400
H4001       H  0.85968442  0.64960375  0.89430067     0.01900
H4002       H  0.88811678  0.63885438  0.89294737     0.05400
H4003       H  0.75221383  0.59051364  0.82185272     0.04400
H4004       H  0.78022069  0.08281649  0.82842748    -0.01400
H4005       H  0.79372325  0.61757839  0.82384801     0.00100
H4006       H  0.79591265  0.64319734  0.00105675     0.03700
H4007       H  0.76362074  0.60582501  0.00979784     0.05700
H4008       H  0.75701803  0.63542241  0.99545234     0.06500
C4009       C  0.61386994  0.82284803  0.09948626    -0.23100
C4010       C  0.61363874  0.80111196  0.07613992     0.08900
C4011       C  0.60080513  0.79665524  0.03962635     0.09300
C4012       C  0.58913770  0.81430616  0.02766380    -0.18000
C4013       C  0.58673426  0.83372958  0.05212373    -0.28400
C4014       C  0.59945541  0.83843753  0.08830066     0.17600
C4015       C  0.61840828  0.77796641  0.09296408     0.11600
C4016       C  0.59529827  0.77087885  0.01452988    -0.12800
H4017       H  0.57856399  0.81044181  0.00023795     0.11900
C4018       C  0.59666041  0.85882800  0.11547504    -0.23600
H4019       H  0.62278478  0.82554779  0.12763573     0.07500
C4020       C  0.63658450  0.76854862  0.07520069     0.03800
C4021       C  0.62402973  0.73732278  0.07126792    -0.20800
C4022       C  0.59506613  0.71659848  0.08727842    -0.13100
C4023       C  0.58462472  0.72724231  0.11639957     0.12500
C4024       C  0.09782372  0.76269179  0.11283161    -0.23600
C4025       C  0.66716533  0.79123036  0.05774502    -0.06600
H4026       H  0.63430833  0.72935776  0.05168226     0.14100
C4027       C  0.05726619  0.71109277  0.13434073    -0.16800
H4028       H  0.08631004  0.77121627  0.12952269     0.08400
H4029       H  0.60852143  0.88222154  0.10463213     0.06300
H4030       H  0.11789698  0.86980568  0.13406705     0.07500
H4031       H  0.57168879  0.85044181  0.12021012     0.06500
H4032       H  0.58040660  0.74901166  0.02870714     0.01400
H4033       H  0.61764330  0.77333975  0.00650475     0.01900
H4034       H  0.58292471  0.76988478  0.98838228     0.05400
H4035       H  0.67776566  0.77989302  0.04359376     0.04400
H4036       H  0.68375243  0.80646201  0.07968402    -0.01400
H4037       H  0.66404796  0.80528120  0.03727567     0.00100
H4038       H  0.05466765  0.72411629  0.15692214     0.03700
H4039       H  0.06070731  0.69379116  0.14746113     0.05700
H4040       H  0.03520338  0.69999082  0.11773699     0.06500
C4041       C  0.77514368  0.89092143  0.27112487    -0.23100
C4042       C  0.74242720  0.87614996  0.27012556     0.08900
C4043       C  0.72381071  0.84430522  0.27033916     0.09300
C4044       C  0.73853327  0.82801243  0.27549309    -0.18000
C4045       C  0.77125071  0.84315204  0.27897137    -0.28400
C4046       C  0.78986494  0.87490067  0.27569662     0.17600
C4047       C  0.73020677  0.89590543  0.27606213     0.11600
C4048       C  0.68887809  0.82774696  0.26511311    -0.12800
H4049       H  0.72456012  0.80356336  0.27771211     0.11900
C4050       C  0.82507740  0.89235687  0.28008685    -0.23600
H4051       H  0.78924637  0.91548171  0.27102780     0.07500
C4052       C  0.72782398  0.90302077  0.31313885     0.03800
C4053       C  0.73938099  0.93315652  0.32283157    -0.20800
C4054       C  0.75501720  0.95630910  0.29698664    -0.13100
C4055       C  0.75118555  0.94823805  0.25872066     0.12500
C4056       C  0.73763785  0.91766310  0.24875764    -0.23600
C4057       C  0.71713945  0.87984717  0.34344370    -0.06600
H4058       H  0.74091364  0.44347081  0.35509551     0.14100
C4059       C  0.76249307  0.97126053  0.22820039    -0.16800
H4060       H  0.73823088  0.91171026  0.22009902     0.08400
H4061       H  0.83172993  0.88730235  0.30728620     0.06300
H4062       H  0.83545923  0.91721379  0.27888308     0.07500
H4063       H  0.83542840  0.88616983  0.25744089     0.06500
H4064       H  0.68313388  0.83411982  0.23824752     0.01400
H4065       H  0.67835516  0.83361760  0.28759440     0.01900
H4066       H  0.67808367  0.80280938  0.26512944     0.05400
H4067       H  0.71855244  0.88993227  0.37104682     0.04400
H4068       H  0.73192595  0.86992127  0.34460694    -0.01400
H4069       H  0.69239707  0.86171093  0.33872477     0.00100
H4070       H  0.78833623  0.98373137  0.22632335     0.03700
H4071       H  0.75472528  0.98731606  0.23323796     0.05700
H4072       H  0.75298956  0.96026109  0.20075496     0.06500
C4073       C  0.46389889  0.53433210  0.42146231    -0.23100
C4074       C  0.48962267  0.55281156  0.44489177     0.08900
C4075       C  0.48813204  0.57396831  0.46784235     0.09300
C4076       C  0.46801131  0.58372322  0.45733962    -0.18000
C4077       C  0.94984932  0.57153885  0.41893846    -0.28400
C4078       C  0.94392415  0.54433872  0.40218927     0.17600
C4079       C  0.52041405  0.56280824  0.42874454     0.11600
C4080       C  0.51096213  0.58932841  0.49960735    -0.12800
H4081       H  0.47061996  0.60359949  0.47077398     0.11900
C4082       C  0.92007479  0.52863280  0.37156068    -0.23600
H4083       H  0.46326598  0.51615220  0.40592616     0.07500
C4084       C  0.54103720  0.55449825  0.44246351     0.03800
C4085       C  0.57065191  0.56696027  0.42626702    -0.20800
C4086       C  0.57921346  0.58657490  0.39595583    -0.13100
C4087       C  0.55803077  0.59410667  0.38166393     0.12500
C4088       C  0.52913265  0.58234603  0.39843882    -0.23600
C4089       C  0.53162483  0.53241598  0.47359902    -0.06600
H4090       H  0.58721147  0.56159210  0.43736958     0.14100
C4091       C  0.56528409  0.61515306  0.34948145    -0.16800
H4092       H  0.51319428  0.58876116  0.38793891     0.08400
H4093       H  0.90407769  0.50441632  0.37849357     0.06300
H4094       H  0.93236086  0.53026540  0.34561617     0.07500
H4095       H  0.90559887  0.53869251  0.36728599     0.06500
H4096       H  0.53537737  0.60112302  0.48965051     0.01400
H4097       H  0.50753409  0.57216172  0.52030520     0.01900
H4098       H  0.50744306  0.60626254  0.51374995     0.05400
H4099       H  0.54984206  0.52717610  0.47940864     0.04400
H4100       H  0.50968663  0.51090269  0.46590610    -0.01400
H4101       H  0.52787859  0.54189712  0.49913159     0.00100
H4102       H  0.54749313  0.60308408  0.32710257     0.03700
H4103       H  0.58861502  0.62365761  0.33755843     0.05700
H4104       H  0.56439780  0.63505254  0.35869699     0.06500
loop_ 
_geom_bond_atom_site_label_1 
_geom_bond_atom_site_label_2 
_geom_bond_distance 
_geom_bond_site_symmetry_2 
_ccdc_geom_bond_type 
Zr1           O2   2.441       .  S
Zr1           O3   2.425       .  S
Zr1           O4   2.481       .  S
Zr1           O7   2.440       .  S
Zr1           O9   2.385       .  S
Zr1          O10   2.385       .  S
Zr1          O11   2.401       .  S
Zr1          O12   2.411       .  S
O2           H58   0.989       .  S
O2           H66   0.990   1_545  S
O3           C23   1.285       .  A
O4           C25   1.291       .  A
O5          Zr15   2.411       .  S
O5           C24   1.281       .  A
O6          Zr14   2.404       .  S
O6           C25   1.281       .  A
O7           C24   1.286       .  A
O8          Zr16   2.436       .  S
O8           C23   1.283       .  A
O9          Zr14   2.395       .  S
O9          Zr16   2.389       .  S
O10         Zr15   2.369       .  S
O10         Zr16   2.359       .  S
O10          H45   0.964       .  S
O11         Zr14   2.397       .  S
O11         Zr31   2.366       .  S
O11          H48   0.964       .  S
O12         Zr15   2.391       .  S
O12         Zr31   2.390       .  S
Zr13         O38   2.442       .  S
Zr13         O32   2.457       .  S
Zr13         O40   2.458       .  S
Zr13         O28   2.453       .  S
Zr13         O19   2.413       .  S
Zr13         O20   2.416       .  S
Zr13         O21   2.382       .  S
Zr13         O22   2.390       .  S
Zr14         O33   2.437       .  S
Zr14       O2078   2.436       .  S
Zr14         O27   2.417       .  S
Zr14         O20   2.393       .  S
Zr14         O21   2.390       .  S
Zr15         O17   2.437       .  S
Zr15         O39   2.438       .  S
Zr15         O41   2.401       .  S
Zr15         O19   2.397       .  S
Zr15         O22   2.386       .  S
Zr16         O42   2.438       .  S
Zr16         O43   2.439       .  S
Zr16         O18   2.438       .  S
Zr16         O19   2.404       .  S
Zr16         O20   2.394       .  S
O17          H54   0.990       .  S
O18          H49   0.990       .  S
O18          H63   0.990       .  S
O20          H46   0.964       .  S
O21         Zr31   2.392       .  S
O22         Zr31   2.378       .  S
O22          H47   0.965       .  S
C23          C71   1.467       .  S
C24          C75   1.448       .  S
C25         C703   1.469       .  S
O26       Zr2066   2.436   1_455  S
O26          H62   0.990       .  S
O27          C29   1.281       .  A
O28          C29   1.286       .  A
C29        C2133   1.459       .  S
O30       Zr1057   2.436       .  S
O30          H59   0.990       .  S
Zr31         O34   2.437   1_545  S
Zr31         O35   2.442   1_545  S
Zr31       O1056   2.436   1_545  S
Zr31         O36   2.384       .  S
O32          C37   1.288       .  A
O33          H50   0.990       .  S
O33          H65   0.990       .  S
O34          H51   0.990       .  S
O35          H64   0.990       .  S
O35        H1081   0.989   1_565  S
O36          C37   1.273       .  A
C37          C87   1.461       .  S
O38          H57   0.990       .  S
O38          H61   0.991       .  S
O39          H53   0.990       .  S
O39          H60   0.990       .  S
O40          C44   1.285       .  A
O41          C44   1.277       .  A
O42          H52   0.990       .  S
O43          H56   0.991       .  S
C44         C733   1.464       .  S
H55        O1061   0.990       .  S
C67         C999   1.481       .  S
C67          N68   1.352       .  A
C67          N72   1.354       .  A
N68          C69   1.357       .  A
C69         C269   1.457       .  S
C69          N70   1.362       .  A
N70          C71   1.364       .  A
C71          N72   1.356       .  A
C73        C2002   1.490       .  S
C73          N74   1.340   1_565  A
C73          N78   1.358       .  A
N74          C75   1.344       .  A
C75          N76   1.365       .  A
N76          C77   1.366       .  A
C77         C408   1.476       .  S
C77          N78   1.364   1_545  A
C79         C944   1.479       .  S
C79          N80   1.349       .  A
C79          N84   1.352       .  A
N80          C81   1.355       .  A
C81        C2081   1.454   1_455  S
C81          N82   1.361       .  A
N82          C83   1.363       .  A
C83         C473   1.463   1_554  S
C83          N84   1.356       .  A
C85         C903   1.470       .  S
C85          N86   1.354       .  A
C85          N90   1.355       .  A
N86          C87   1.353   1_556  A
C87          N88   1.363   1_554  A
N88          C89   1.358   1_545  A
C89        C1219   1.459       .  S
C89          N90   1.355   1_565  A
Zr91         O92   2.440       .  S
Zr91         O93   2.459       .  S
Zr91         O94   2.500       .  S
Zr91         O97   2.465       .  S
Zr91         O99   2.380       .  S
Zr91        O100   2.399       .  S
Zr91        O101   2.416       .  S
Zr91        O102   2.411       .  S
O92         H148   0.990       .  S
O92         H156   0.990       .  S
O93         C113   1.289       .  A
O94         C115   1.295       .  A
O95        Zr105   2.415       .  S
O95         C114   1.280       .  A
O96        Zr104   2.443       .  S
O96         C115   1.286       .  A
O97         C114   1.290       .  A
O98        Zr106   2.432       .  S
O98         C113   1.280       .  A
O99        Zr104   2.393       .  S
O99        Zr106   2.391       .  S
O100       Zr105   2.398       .  S
O100       Zr106   2.380       .  S
O100        H135   0.967       .  S
O101       Zr104   2.390       .  S
O101       Zr121   2.384       .  S
O101        H138   0.963       .  S
O102       Zr105   2.403       .  S
O102       Zr121   2.382       .  S
Zr103       O128   2.439       .  S
Zr103       O122   2.466       .  S
Zr103       O130   2.498       .  S
Zr103       O118   2.475       .  S
Zr103       O109   2.415       .  S
Zr103       O110   2.430       .  S
Zr103       O111   2.400       .  S
Zr103       O112   2.413       .  S
Zr104       O123   2.438       .  S
Zr104       O116   2.435       .  S
Zr104       O117   2.415       .  S
Zr104       O110   2.408       .  S
Zr104       O111   2.382       .  S
Zr105       O107   2.438       .  S
Zr105       O129   2.438       .  S
Zr105       O131   2.444       .  S
Zr105       O109   2.391       .  S
Zr105       O112   2.400       .  S
Zr106       O132   2.436       .  S
Zr106       O133   2.436       .  S
Zr106       O108   2.438       .  S
Zr106       O109   2.403       .  S
Zr106       O110   2.400       .  S
O107        H144   0.990       .  S
O108        H139   0.990       .  S
O108        H153   0.990       .  S
O110        H136   0.973       .  S
O111       Zr121   2.382       .  S
O112       Zr121   2.397       .  S
O112        H137   0.967       .  S
C113        C377   1.481       .  S
C114        C599   1.463       .  S
C115        C715   1.493       .  S
O116        H152   0.990       .  S
O117        C119   1.281       .  A
O118        C119   1.292       .  A
C119        C227   1.467       .  S
O120       Zr121   2.441       .  S
O120        H149   0.990       .  S
Zr121       O124   2.443       .  S
Zr121       O125   2.441       .  S
Zr121       O126   2.407       .  S
O122        C127   1.279       .  A
O123        H140   0.990       .  S
O123        H155   0.990       .  S
O124        H141   0.990       .  S
O125        H145   0.989       .  S
O125        H154   0.990       .  S
O126        C127   1.265       .  A
C127        C519   1.464       .  S
O128        H147   0.990       .  S
O128        H151   0.990       .  S
O129        H143   0.990       .  S
O129        H150   0.990       .  S
O130        C134   1.295       .  A
O131        C134   1.286       .  A
O132        H142   0.990       .  S
O133        H146   0.990       .  S
C134        C709   1.500       .  S
Zr157       O158   2.441       .  S
Zr157       O159   2.445       .  S
Zr157       O160   2.487       .  S
Zr157       O163   2.448       .  S
Zr157       O165   2.381       .  S
Zr157       O166   2.397       .  S
Zr157       O167   2.413       .  S
Zr157       O168   2.402       .  S
O158        H214   0.990       .  S
O158        H222   0.991       .  S
O159        C179   1.287       .  A
O160        C181   1.291       .  A
O161       Zr171   2.404       .  S
O161        C180   1.279       .  A
O162       Zr170   2.431       .  S
O162        C181   1.285       .  A
O163        C180   1.287       .  A
O164       Zr172   2.443       .  S
O164        C179   1.283       .  A
O165       Zr170   2.396       .  S
O165       Zr172   2.386       .  S
O166       Zr171   2.391       .  S
O166       Zr172   2.376       .  S
O166        H201   0.966       .  S
O167       Zr170   2.388       .  S
O167       Zr187   2.379       .  S
O167        H204   0.963       .  S
O168       Zr171   2.398       .  S
O168       Zr187   2.376       .  S
Zr169       O194   2.440       .  S
Zr169       O188   2.475       .  S
Zr169       O196   2.501       .  S
Zr169       O184   2.488       .  S
Zr169       O175   2.415       .  S
Zr169       O176   2.435       .  S
Zr169       O177   2.402       .  S
Zr169       O178   2.413       .  S
Zr170       O189   2.437       .  S
Zr170       O182   2.436       .  S
Zr170       O183   2.410       .  S
Zr170       O176   2.409       .  S
Zr170       O177   2.385       .  S
Zr171       O173   2.436       .  S
Zr171       O195   2.436       .  S
Zr171       O197   2.431       .  S
Zr171       O175   2.385       .  S
Zr171       O178   2.387       .  S
Zr172       O198   2.436       .  S
Zr172       O199   2.435       .  S
Zr172       O174   2.438       .  S
Zr172       O175   2.407       .  S
Zr172       O176   2.403       .  S
O173        H210   0.990       .  S
O174        H205   0.990       .  S
O174        H219   0.990       .  S
O176        H202   0.965       .  S
O177       Zr187   2.387       .  S
O178       Zr187   2.399       .  S
O178        H203   0.966       .  S
C179        C225   1.482       .  S
C180        C231   1.450       .  S
C181        C723   1.481       .  S
O182        H218   0.990       .  S
O183        C185   1.279       .  A
O184        C185   1.294       .  A
C185        C235   1.467       .  S
O186      Zr1213   2.441   1_545  S
O186        H215   0.990       .  S
Zr187       O190   2.441       .  S
Zr187       O191   2.436       .  S
Zr187      O1212   2.440       .  S
Zr187       O192   2.394       .  S
O188        C193   1.280       .  A
O189        H206   0.990       .  S
O189        H221   0.990       .  S
O190       H1233   0.990       .  S
O191        H220   0.990       .  S
O191       H1237   0.989       .  S
O192        C193   1.264       .  A
C193       C1115   1.470       .  S
O194        H213   0.990       .  S
O194        H217   0.990       .  S
O195        H209   0.989       .  S
O195        H216   0.990       .  S
O196        C200   1.295       .  A
O197        C200   1.284       .  A
O198        H208   0.990       .  S
O199        H212   0.990       .  S
C200        C729   1.498       .  S
H207       O1216   0.990       .  S
H211       O1217   0.989   1_565  S
C223        C871   1.487       .  S
C223        N224   1.356       .  A
C223        N228   1.349       .  A
N224        C225   1.360       .  A
C225        N226   1.372       .  A
N226        C227   1.368       .  A
C227        N228   1.351       .  A
C229       C1447   1.462       .  S
C229        N230   1.361       .  A
C229       N1260   1.360       .  A
N230        C231   1.355       .  A
C231        N232   1.350       .  A
N232       C1259   1.353       .  A
C233        C839   1.488       .  S
C233        N234   1.362       .  A
C233       N1258   1.354       .  A
N234       C1255   1.362       .  A
C235        N236   1.355       .  A
C235        N240   1.372       .  A
N236        C237   1.348       .  A
C237        C807   1.489       .  S
C237        N238   1.350       .  A
N238        C239   1.361   1_556  A
C239        C335   1.485       .  S
C239        N240   1.371   1_554  A
Zr241       O242   2.441       .  S
Zr241       O243   2.432       .  S
Zr241       O244   2.481       .  S
Zr241      O2299   2.422       .  S
Zr241       O249   2.378       .  S
Zr241       O251   2.399       .  S
Zr241      O2302   2.386       .  S
Zr241      O2304   2.410       .  S
O242        H298   0.990       .  S
O242        H306   0.990       .  S
O243        C263   1.286       .  A
O244        C265   1.290       .  A
O245       Zr255   2.451       .  S
O245        C264   1.288       .  A
O246       Zr254   2.424       .  S
O246        C265   1.284       .  A
O247      Zr2293   2.412       .  S
O247        C264   1.279   1_655  A
O248       Zr256   2.416       .  S
O248       C2315   1.278   1_455  A
O249       Zr254   2.394       .  S
O249      Zr2308   2.391       .  S
O250       Zr255   2.377       .  S
O250       Zr256   2.365       .  S
O250      Zr2293   2.387   1_455  S
O250        H285   0.965       .  S
O251       Zr254   2.392       .  S
O251       Zr271   2.383       .  S
O251        H288   0.965       .  S
O252       Zr255   2.390   1_655  S
O252      Zr2293   2.413       .  S
O252      Zr2323   2.392       .  S
Zr253       O278   2.443       .  S
Zr253       O272   2.462       .  S
Zr253       O280   2.477       .  S
Zr253      O2320   2.465   1_455  S
Zr253       O259   2.416       .  S
Zr253       O262   2.397       .  S
Zr253      O2312   2.417   1_455  S
Zr253      O2313   2.386   1_455  S
Zr254       O273   2.437       .  S
Zr254       O266   2.438       .  S
Zr254       O267   2.413       .  S
Zr254       O260   2.404       .  S
Zr254       O261   2.390       .  S
Zr255       O257   2.435       .  S
Zr255       O279   2.438       .  S
Zr255       O281   2.421       .  S
Zr255       O259   2.402       .  S
Zr255       O262   2.399       .  S
Zr256       O282   2.437       .  S
Zr256       O283   2.438       .  S
Zr256      O2310   2.438   1_455  S
Zr256       O259   2.397       .  S
Zr256      O2301   2.396   1_455  S
Zr256      O2312   2.384   1_455  S
O257        H294   0.990       .  S
O258      Zr2308   2.438       .  S
O258        H289   0.990       .  S
O258        H303   0.990       .  S
O260      Zr2305   2.415       .  S
O260      Zr2308   2.381       .  S
O260        H286   0.964       .  S
O261       Zr271   2.382       .  S
O261      Zr2305   2.385       .  S
O262      Zr2323   2.379   1_455  S
O262        H287   0.966       .  S
C263       O2300   1.279       .  A
C263       C2577   1.462       .  S
C264        C681   1.457       .  S
C265        C713   1.480       .  S
O266        H302   0.990       .  S
O267        C269   1.280       .  A
O268      Zr2305   2.456       .  S
O268        C269   1.287       .  A
O270       Zr271   2.438       .  S
O270        H299   0.990       .  S
Zr271       O274   2.436       .  S
Zr271      O2327   2.439       .  S
Zr271       O276   2.398       .  S
Zr271      O2304   2.393       .  S
Zr271      O2314   2.380       .  S
O272        C277   1.289   1_455  A
O273        H290   0.990       .  S
O273        H305   0.990       .  S
O274        H291   0.990       .  S
O275      Zr2323   2.439   1_455  S
O275        H304   0.990   1_455  S
O275       H2347   0.990       .  S
O276       C2329   1.276       .  A
C277       O2328   1.276       .  A
C277       C2431   1.470       .  S
O278        H297   0.990       .  S
O278        H301   0.990       .  S
O279        H293   0.990       .  S
O279        H300   0.990       .  S
O280        C284   1.289       .  A
O281        C284   1.284       .  A
O282        H292   0.990       .  S
O283        H296   0.990       .  S
C284        C717   1.480       .  S
H295       O2327   0.990       .  S
Zr307       O308   2.440       .  S
Zr307       O309   2.479       .  S
Zr307       O310   2.500       .  S
Zr307       O313   2.472       .  S
Zr307       O315   2.399       .  S
Zr307       O316   2.403       .  S
Zr307       O317   2.428       .  S
Zr307       O318   2.408       .  S
O308        H364   0.990       .  S
O308        H372   0.990       .  S
O309        C329   1.290       .  A
O310        C331   1.296       .  A
O311       Zr321   2.422       .  S
O311        C330   1.272       .  A
O312       Zr320   2.459       .  S
O312        C331   1.290       .  A
O313        C330   1.289       .  A
O314       Zr322   2.409       .  S
O314        C329   1.280       .  A
O315       Zr320   2.409       .  S
O315       Zr322   2.387       .  S
O316       Zr321   2.396       .  S
O316       Zr322   2.372       .  S
O316        H351   0.965       .  S
O317       Zr320   2.406       .  S
O317       Zr337   2.371       .  S
O317        H354   0.963       .  S
O318       Zr321   2.389       .  S
O318       Zr337   2.366       .  S
Zr319       O344   2.442       .  S
Zr319       O338   2.481       .  S
Zr319       O346   2.471       .  S
Zr319       O334   2.418       .  S
Zr319       O325   2.400       .  S
Zr319       O326   2.427       .  S
Zr319       O327   2.380       .  S
Zr319       O328   2.384       .  S
Zr320       O339   2.436       .  S
Zr320       O332   2.435       .  S
Zr320       O333   2.479       .  S
Zr320       O326   2.408       .  S
Zr320       O327   2.395       .  S
Zr321       O323   2.435       .  S
Zr321       O345   2.440       .  S
Zr321       O347   2.420       .  S
Zr321       O325   2.377       .  S
Zr321       O328   2.401       .  S
Zr322       O348   2.437       .  S
Zr322       O349   2.437       .  S
Zr322       O324   2.438       .  S
Zr322       O325   2.386       .  S
Zr322       O326   2.391       .  S
O323        H360   0.990       .  S
O324        H355   0.990       .  S
O324        H369   0.990       .  S
O326        H352   0.965       .  S
O327       Zr337   2.374       .  S
O328       Zr337   2.388       .  S
O328        H353   0.966       .  S
C329        C375   1.473       .  S
C330        C381   1.461       .  S
C331        C707   1.490       .  S
O332        H368   0.990       .  S
O333        C335   1.291       .  A
O334        C335   1.282       .  A
O336      Zr2389   2.431   1_455  S
O336        H365   0.990       .  S
Zr337       O340   2.437       .  S
Zr337       O341   2.435       .  S
Zr337      O2388   2.434       .  S
Zr337       O342   2.380       .  S
O338        C343   1.290       .  A
O339        H356   0.990       .  S
O339        H371   0.990       .  S
O340       H2409   0.991       .  S
O341        H370   0.990       .  S
O341       H2413   0.989       .  S
O342        C343   1.270       .  A
C343        C695   1.463       .  S
O344        H363   0.990       .  S
O344        H367   0.990       .  S
O345        H359   0.990       .  S
O345        H366   0.990       .  S
O346        C350   1.290       .  A
O347        C350   1.282       .  A
O348        H358   0.990       .  S
O349        H362   0.990       .  S
C350        C737   1.472       .  S
H357       O2392   0.991       .  S
H361       O2393   0.989       .  S
C373        C967   1.465       .  S
C373        N374   1.347       .  A
C373        N378   1.350       .  A
N374        C375   1.352       .  A
C375        N376   1.373       .  A
N376        C377   1.376       .  A
C377        N378   1.357       .  A
C379       C2329   1.467       .  S
C379        N380   1.366       .  A
C379        N384   1.360       .  A
N380        C381   1.356       .  A
C381        N382   1.351       .  A
N382       C2435   1.354       .  A
C383        C775   1.474       .  S
C383       N2434   1.353   1_455  A
C383       N2436   1.358       .  A
N384       C2435   1.357       .  A
Zr385       O386   2.447       .  S
Zr385       O387   2.465       .  S
Zr385       O388   2.448       .  S
Zr385      O1417   2.402       .  S
Zr385       O393   2.378       .  S
Zr385       O395   2.397       .  S
Zr385      O1420   2.403       .  S
Zr385      O1422   2.420       .  S
O386        H442   0.991       .  S
O386        H450   0.988       .  S
O387        C407   1.292       .  A
O388        C409   1.284       .  A
O389       Zr399   2.473       .  S
O389        C408   1.280       .  A
O390       Zr398   2.440       .  S
O390        C409   1.287       .  A
O391      Zr1411   2.407   1_545  S
O391        C408   1.268       .  A
O392      Zr1426   2.401       .  S
O392        C407   1.276       .  A
O393       Zr398   2.385       .  S
O393      Zr1426   2.393       .  S
O394       Zr399   2.404       .  S
O394       Zr400   2.363       .  S
O394      Zr1411   2.405   1_545  S
O394        H429   0.964       .  S
O395       Zr398   2.380       .  S
O395       Zr415   2.388       .  S
O395        H432   0.964       .  S
O396       Zr399   2.402       .  S
O396      Zr1411   2.418   1_545  S
O396      Zr1441   2.396   1_545  S
Zr397       O422   2.443       .  S
Zr397       O416   2.444       .  S
Zr397       O424   2.462       .  S
Zr397      O1438   2.440   1_545  S
Zr397       O403   2.406       .  S
Zr397       O406   2.394       .  S
Zr397      O1430   2.410   1_545  S
Zr397      O1431   2.385   1_545  S
Zr398       O417   2.435       .  S
Zr398       O410   2.436       .  S
Zr398       O411   2.415       .  S
Zr398       O404   2.404       .  S
Zr398       O405   2.397       .  S
Zr399       O401   2.433       .  S
Zr399       O423   2.438       .  S
Zr399       O425   2.428       .  S
Zr399       O403   2.409       .  S
Zr399       O406   2.408       .  S
Zr400       O426   2.435       .  S
Zr400       O427   2.437       .  S
Zr400      O1428   2.439   1_545  S
Zr400      O1418   2.397       .  S
Zr400       O403   2.392       .  S
Zr400      O1419   2.393   1_545  S
Zr400      O1430   2.368   1_545  S
O401        H438   0.990       .  S
O402      Zr1426   2.436       .  S
O402        H433   0.990       .  S
O402        H447   0.990       .  S
O404      Zr1423   2.408       .  S
O404      Zr1426   2.378       .  S
O404        H430   0.965       .  S
O405       Zr415   2.382       .  S
O405      Zr1423   2.380       .  S
O406      Zr1441   2.387   1_545  S
O406        H431   0.966       .  S
C407       C1631   1.466       .  S
C409        C719   1.473       .  S
O410        H446   0.990       .  S
O411        C413   1.280       .  A
O412      Zr1423   2.454       .  S
O412        C413   1.287       .  A
C413        C687   1.456       .  S
O414       Zr415   2.440       .  S
O414        H443   0.990       .  S
Zr415       O418   2.438       .  S
Zr415      O1445   2.440       .  S
Zr415       O420   2.409       .  S
Zr415      O1422   2.398       .  S
Zr415      O1432   2.386       .  S
O416        C421   1.285       .  A
O417        H434   0.990       .  S
O417        H449   0.990       .  S
O418        H435   0.990       .  S
O419      Zr1441   2.439   1_545  S
O419        H448   0.990       .  S
O419       H1465   0.990       .  S
O420       C1447   1.278       .  A
C421       O1446   1.278   1_545  A
C421       C1255   1.469       .  S
O422        H441   0.990       .  S
O422        H445   0.991       .  S
O423        H437   0.990       .  S
O423        H444   0.990       .  S
O424        C428   1.286       .  A
O425        C428   1.284       .  A
O426        H436   0.990       .  S
O427        H440   0.990       .  S
C428        C711   1.477       .  S
H439       O1445   0.990       .  S
Zr451       O452   2.440       .  S
Zr451       O453   2.419       .  S
Zr451       O454   2.499       .  S
Zr451       O457   2.446       .  S
Zr451       O459   2.382       .  S
Zr451       O460   2.394       .  S
Zr451       O461   2.397       .  S
Zr451       O462   2.411       .  S
O452        H508   0.990       .  S
O452        H516   0.990       .  S
O453        C473   1.282       .  A
O454        C475   1.295       .  A
O455       Zr465   2.434       .  S
O455        C474   1.285       .  A
O456       Zr464   2.427       .  S
O456        C475   1.284       .  A
O457        C474   1.287       .  A
O458       Zr466   2.429       .  S
O458        C473   1.281       .  A
O459       Zr464   2.399       .  S
O459       Zr466   2.389       .  S
O460       Zr465   2.378       .  S
O460       Zr466   2.362       .  S
O460        H495   0.965       .  S
O461       Zr464   2.398       .  S
O461       Zr481   2.373       .  S
O461        H498   0.964       .  S
O462       Zr465   2.399       .  S
O462       Zr481   2.387       .  S
Zr463       O488   2.444       .  S
Zr463       O482   2.474       .  S
Zr463       O490   2.476       .  S
Zr463       O478   2.464       .  S
Zr463       O469   2.417       .  S
Zr463       O470   2.424       .  S
Zr463       O471   2.385       .  S
Zr463       O472   2.391       .  S
Zr464       O483   2.436       .  S
Zr464       O476   2.437       .  S
Zr464       O477   2.424       .  S
Zr464       O470   2.401       .  S
Zr464       O471   2.394       .  S
Zr465       O467   2.435       .  S
Zr465       O489   2.439       .  S
Zr465       O491   2.422       .  S
Zr465       O469   2.395       .  S
Zr465       O472   2.392       .  S
Zr466       O492   2.436   1_455  S
Zr466       O468   2.438       .  S
Zr466      O2545   2.439   1_455  S
Zr466       O469   2.408       .  S
Zr466       O470   2.388       .  S
O467        H504   0.990       .  S
O468        H499   0.990       .  S
O468        H513   0.990       .  S
O470        H496   0.964       .  S
O471       Zr481   2.393       .  S
O472       Zr481   2.387       .  S
O472        H497   0.966       .  S
C474        C611   1.460       .  S
C475        C731   1.489       .  S
O476        H512   0.990       .  S
O477        C479   1.282       .  A
O478        C479   1.289       .  A
C479        C523   1.462       .  S
O480       Zr481   2.436       .  S
O480        H509   0.990       .  S
Zr481       O484   2.435       .  S
Zr481       O485   2.440       .  S
Zr481       O486   2.391       .  S
O482        C487   1.291       .  A
O483        H500   0.990       .  S
O483        H515   0.990       .  S
O484        H501   0.990       .  S
O485        H505   0.989       .  S
O485        H514   0.990       .  S
O486        C487   1.275       .  A
C487        C521   1.473       .  S
O488        H507   0.991       .  S
O488        H511   0.990       .  S
O489        H503   0.990       .  S
O489        H510   0.990       .  S
O490        C494   1.288       .  A
O491        C494   1.283       .  A
O492        H502   0.989   1_655  S
O493      Zr2518   2.440       .  S
O493        H506   0.991       .  S
C494        C725   1.481       .  S
C517        C743   1.466       .  S
C517        N518   1.352       .  A
C517        N522   1.356       .  A
N518        C519   1.349       .  A
C519        N520   1.363       .  A
N520        C521   1.370       .  A
C521        N522   1.358       .  A
C523        N524   1.365       .  A
C523        N528   1.362   1_455  A
N524        C525   1.363   1_455  A
C525       C2315   1.463       .  S
C525       N2578   1.347       .  A
N526        C527   1.349       .  A
N526       C2577   1.350       .  A
C527        C848   1.464       .  S
C527       N2580   1.353       .  A
N528       C2579   1.356       .  A
Zr529       O530   2.434       .  S
Zr529       O531   2.445       .  S
Zr529       O532   2.449       .  S
Zr529       O535   2.410       .  S
Zr529       O537   2.377       .  S
Zr529       O538   2.399       .  S
Zr529       O539   2.402       .  S
Zr529       O540   2.409       .  S
O530        H586   0.990       .  S
O530        H594   0.991       .  S
O531        C551   1.288       .  A
O532        C553   1.281       .  A
O533       Zr543   2.493       .  S
O533        C552   1.286       .  A
O534       Zr542   2.444       .  S
O534        C553   1.287       .  A
O535        C552   1.273       .  A
O536       Zr544   2.418       .  S
O536        C551   1.280       .  A
O537       Zr542   2.391       .  S
O537       Zr544   2.388       .  S
O538       Zr543   2.404       .  S
O538       Zr544   2.364       .  S
O538        H573   0.965       .  S
O539       Zr542   2.390       .  S
O539       Zr559   2.391       .  S
O539        H576   0.965       .  S
O540       Zr543   2.401       .  S
O540       Zr559   2.391       .  S
Zr541       O566   2.443       .  S
Zr541       O560   2.459       .  S
Zr541       O568   2.458       .  S
Zr541       O556   2.466       .  S
Zr541       O547   2.416       .  S
Zr541       O548   2.414       .  S
Zr541       O549   2.385       .  S
Zr541       O550   2.401       .  S
Zr542       O561   2.436       .  S
Zr542       O554   2.436       .  S
Zr542       O555   2.417       .  S
Zr542       O548   2.402       .  S
Zr542       O549   2.398       .  S
Zr543       O545   2.436       .  S
Zr543       O567   2.436       .  S
Zr543       O569   2.462       .  S
Zr543       O547   2.405       .  S
Zr543       O550   2.408       .  S
Zr544       O570   2.436       .  S
Zr544       O546   2.438       .  S
Zr544      O1597   2.439   1_545  S
Zr544       O547   2.396       .  S
Zr544       O548   2.388       .  S
O545        H582   0.990       .  S
O546        H577   0.990       .  S
O546        H591   0.990       .  S
O548        H574   0.965       .  S
O549       Zr559   2.387       .  S
O550       Zr559   2.392       .  S
O550        H575   0.966       .  S
C551        C699   1.468       .  S
C552        C607   1.488       .  S
C553        C735   1.474       .  S
O554        H590   0.990       .  S
O555        C557   1.280       .  A
O556        C557   1.289       .  A
C557        C601   1.464       .  S
O558       Zr559   2.439       .  S
O558        H587   0.990       .  S
Zr559       O562   2.438       .  S
Zr559       O563   2.440       .  S
Zr559       O564   2.407       .  S
O560        C565   1.287       .  A
O561        H578   0.990       .  S
O561        H593   0.990       .  S
O562        H579   0.990       .  S
O563        H583   0.990       .  S
O563        H592   0.990       .  S
O564        C565   1.277       .  A
C565        C597   1.472       .  S
O566        H585   0.990       .  S
O566        H589   0.991   1_545  S
O567        H581   0.990       .  S
O567        H588   0.990       .  S
O568        C572   1.284       .  A
O569        C572   1.291       .  A
O570        H580   0.990       .  S
O571      Zr1570   2.436       .  S
O571        H584   0.990       .  S
C572        C705   1.487       .  S
C595       C1008   1.465       .  S
C595        N596   1.357       .  A
C595        N600   1.356       .  A
N596        C597   1.358       .  A
C597        N598   1.364       .  A
N598        C599   1.360       .  A
C599        N600   1.355       .  A
C601        N602   1.360   1_545  A
C601        N606   1.362       .  A
N602       C1629   1.358       .  A
C603        C784   1.479       .  S
C603        N604   1.352       .  A
C603       N1628   1.357       .  A
N604       C1631   1.346       .  A
C605       C1433   1.462       .  S
C605        N606   1.363   1_565  A
C605       N1630   1.345       .  A
C607        N608   1.363       .  A
C607        N612   1.373       .  A
N608        C609   1.355   1_554  A
C609        C816   1.476       .  S
C609        N610   1.341       .  A
N610        C611   1.347       .  A
C611        N612   1.373   1_556  A
Zr613       O614   2.432       .  S
Zr613       O615   2.427       .  S
Zr613       O616   2.467       .  S
Zr613       O619   2.419       .  S
Zr613       O621   2.380       .  S
Zr613       O622   2.398       .  S
Zr613       O623   2.397       .  S
Zr613       O624   2.411       .  S
O614        H670   0.990       .  S
O614        H678   0.990   1_455  S
O615        C635   1.285       .  A
O616        C637   1.286       .  A
O617       Zr627   2.471       .  S
O617        C636   1.281       .  A
O618       Zr626   2.441       .  S
O618        C637   1.286       .  A
O619        C636   1.276       .  A
O620       Zr628   2.422       .  S
O620        C635   1.281       .  A
O621       Zr626   2.391       .  S
O621       Zr628   2.390       .  S
O622       Zr627   2.396       .  S
O622       Zr628   2.359       .  S
O622        H657   0.964       .  S
O623       Zr626   2.390       .  S
O623       Zr643   2.385       .  S
O623        H660   0.965       .  S
O624       Zr627   2.412       .  S
O624       Zr643   2.399       .  S
Zr625       O650   2.443       .  S
Zr625       O644   2.445       .  S
Zr625       O652   2.458       .  S
Zr625       O640   2.476       .  S
Zr625       O631   2.412       .  S
Zr625       O632   2.413       .  S
Zr625       O633   2.384       .  S
Zr625       O634   2.395       .  S
Zr626       O645   2.435       .  S
Zr626      O1664   2.435       .  S
Zr626       O639   2.415       .  S
Zr626       O632   2.404       .  S
Zr626       O633   2.404       .  S
Zr627       O629   2.435       .  S
Zr627       O651   2.439       .  S
Zr627       O653   2.448       .  S
Zr627       O631   2.411       .  S
Zr627       O634   2.399       .  S
Zr628       O654   2.435       .  S
Zr628       O655   2.437       .  S
Zr628       O630   2.438       .  S
Zr628       O631   2.401       .  S
Zr628       O632   2.383       .  S
O629        H666   0.990       .  S
O630        H675   0.990       .  S
O630       H1687   0.990       .  S
O632        H658   0.964       .  S
O633       Zr643   2.387       .  S
O634       Zr643   2.388       .  S
O634        H659   0.966       .  S
C635        C689   1.460       .  S
C636        C683   1.482       .  S
C637        C721   1.482       .  S
O638      Zr1652   2.435   1_545  S
O638        H674   0.990       .  S
O639        C641   1.281       .  A
O640        C641   1.291       .  A
C641       C1727   1.467       .  S
O642      Zr2695   2.437       .  S
O642        H671   0.990       .  S
Zr643       O646   2.437       .  S
Zr643       O647   2.437   1_455  S
Zr643      O2694   2.437   1_455  S
Zr643       O648   2.407       .  S
O644        C649   1.285       .  A
O645        H662   0.990       .  S
O645        H677   0.990       .  S
O646       H2715   0.990   1_455  S
O647        H676   0.990   1_655  S
O647       H2719   0.990       .  S
O648        C649   1.276       .  A
C649        C693   1.464       .  S
O650        H669   0.991       .  S
O650        H673   0.991       .  S
O651        H665   0.990       .  S
O651        H672   0.990       .  S
O652        C656   1.286       .  A
O653        C656   1.287       .  A
O654        H664   0.990       .  S
O655        H668   0.990       .  S
C656        C727   1.483       .  S
H661       O1656   0.990       .  S
H663       O2698   0.990       .  S
H667       O2699   0.990       .  S
C679       C2932   1.477       .  S
C679        N680   1.344       .  A
C679        N684   1.354       .  A
N680        C681   1.350       .  A
C681        N682   1.372       .  A
N682        C683   1.369       .  A
C683        N684   1.357       .  A
C685       C1778   1.484       .  S
C685        N686   1.355       .  A
C685        N690   1.352       .  A
N686        C687   1.356       .  A
C687        N688   1.360       .  A
N688        C689   1.361       .  A
C689        N690   1.351       .  A
C691        C935   1.468       .  S
C691        N692   1.350       .  A
C691       N2748   1.355       .  A
N692        C693   1.355   1_554  A
C693        N694   1.365   1_556  A
N694       C2747   1.363       .  A
C695        N696   1.357       .  A
C695       N2746   1.365       .  A
N696       C2743   1.353       .  A
C697        C912   1.485       .  S
C697        N698   1.349       .  A
C697        N702   1.359       .  A
N698        C699   1.353   1_556  A
C699        N700   1.366   1_554  A
N700        C701   1.363       .  A
C701       C1667   1.469   1_545  S
C701        N702   1.359       .  A
C703       N2756   1.353       .  A
C703       N1734   1.366   1_545  A
N704        C705   1.349       .  A
N704       C2755   1.352   1_455  A
C705       N1732   1.370   1_545  A
N706       C1731   1.366       .  A
N706       C2759   1.372   1_455  A
C707        N708   1.367       .  A
C707       N2758   1.374       .  A
N708       C1729   1.365       .  A
C709        N710   1.370       .  A
C709        N714   1.374       .  A
N710        C711   1.363       .  A
C711        N712   1.351       .  A
N712        C713   1.353       .  A
C713        N714   1.371       .  A
C715        N716   1.374       .  A
C715        N720   1.368       .  A
N716        C717   1.370       .  A
C717        N718   1.353       .  A
N718        C719   1.349       .  A
C719        N720   1.362       .  A
C721       N2774   1.361   1_455  A
C721       N1752   1.354       .  A
N722        C723   1.361       .  A
N722       C2773   1.356       .  A
C723       N1750   1.371       .  A
N724       C1749   1.371   1_545  A
N724       C2777   1.370       .  A
C725        N726   1.357       .  A
C725       N2776   1.368   1_455  A
N726       C1747   1.353   1_545  A
C727        N728   1.359       .  A
C727        N732   1.355       .  A
N728        C729   1.366       .  A
C729        N730   1.374       .  A
N730        C731   1.374       .  A
C731        N732   1.361       .  A
C733        N734   1.353       .  A
C733        N738   1.359       .  A
N734        C735   1.349       .  A
C735        N736   1.364       .  A
N736        C737   1.368       .  A
C737        N738   1.364       .  A
C739        C740   1.403       .  A
C739        C744   1.403       .  A
C739        H749   1.084       .  S
C740        C745   1.473       .  S
C740        C741   1.416       .  A
C741        C742   1.390       .  A
C741        C746   1.512       .  S
C742        C743   1.398       .  A
C742        H747   1.085       .  S
C743        C744   1.415       .  A
C744        C748   1.506       .  S
C745        C750   1.413       .  A
C745        C754   1.402       .  A
C746        H762   1.109       .  S
C746        H763   1.110       .  S
C746        H764   1.111       .  S
C748        H759   1.111       .  S
C748        H760   1.111       .  S
C748        H761   1.108       .  S
C750        C751   1.395   1_545  A
C750        C755   1.513       .  S
C751        C752   1.407       .  A
C751       H1782   1.084       .  S
C752       C1711   1.487       .  S
C752        C753   1.418       .  A
C753        C754   1.401   1_565  A
C753        C757   1.506       .  S
C754        H758   1.083       .  S
C755        H765   1.111       .  S
C755        H766   1.107       .  S
C755        H767   1.110       .  S
H756       C1777   1.084       .  S
C757        H768   1.107       .  S
C757        H769   1.111       .  S
C757        H770   1.110       .  S
C771        C772   1.406       .  A
C771        C776   1.406       .  A
C771        H781   1.084       .  S
C772        C777   1.477       .  S
C772        C773   1.414       .  A
C773        C774   1.389       .  A
C773        C778   1.513       .  S
C774        C775   1.399       .  A
C774        H779   1.081       .  S
C775        C776   1.413       .  A
C776        C780   1.505       .  S
C777        C782   1.414       .  A
C777        C786   1.404       .  A
C778        H794   1.109       .  S
C778        H795   1.109       .  S
C778        H796   1.105       .  S
C780        H791   1.110       .  S
C780        H792   1.110       .  S
C780        H793   1.109       .  S
C782        C783   1.389       .  A
C782        C787   1.512       .  S
C783        C784   1.404       .  A
C783        H788   1.083       .  S
C784        C785   1.417       .  A
C785        C786   1.405       .  A
C785        C789   1.506       .  S
C786        H790   1.083       .  S
C787        H797   1.111       .  S
C787        H798   1.108       .  S
C787        H799   1.110       .  S
C789        H800   1.106       .  S
C789        H802   1.111       .  S
C789       H1827   1.110       .  S
H801       C1815   1.110       .  S
C803        C804   1.398       .  A
C803        C808   1.399       .  A
C803        H813   1.085       .  S
C804        C809   1.479       .  S
C804        C805   1.405       .  A
C805        C806   1.406       .  A
C805        C810   1.507       .  S
C806        C807   1.412       .  A
C806        H811   1.083       .  S
C807        C808   1.422       .  A
C808        C812   1.509       .  S
C809        C814   1.419       .  A
C809        C818   1.403       .  A
C810        H826   1.111       .  S
C810        H827   1.109       .  S
C810        H828   1.110       .  S
C812        H823   1.110       .  S
C812        H824   1.111       .  S
C812        H825   1.110       .  S
C814        C815   1.394       .  A
C814        C819   1.512   1_556  S
C815        C816   1.396       .  A
C815        H820   1.081   1_556  S
C816        C817   1.418       .  A
C817        C818   1.406       .  A
C817        C821   1.509       .  S
C818        H822   1.084       .  S
C819        H829   1.111       .  S
C819        H830   1.109   1_554  S
C819        H831   1.107       .  S
C821        H832   1.111       .  S
C821        H833   1.109       .  S
C821        H834   1.109       .  S
C835        C836   1.404       .  A
C835        C840   1.403       .  A
C835        H845   1.084       .  S
C836        C841   1.478       .  S
C836        C837   1.410       .  A
C837        C838   1.399       .  A
C837        C842   1.505       .  S
C838        C839   1.408       .  A
C838        H843   1.083       .  S
C839        C840   1.412       .  A
C840        C844   1.503       .  S
C841        C846   1.418       .  A
C841        C850   1.406       .  A
C842        H858   1.107       .  S
C842        H859   1.110       .  S
C842        H860   1.108       .  S
C844        H855   1.110       .  S
C844        H856   1.110       .  S
C844        H857   1.110       .  S
C846        C847   1.389       .  A
C846        C851   1.512       .  S
C847        C848   1.396       .  A
C847        H852   1.085       .  S
C848        C849   1.413       .  A
C849        C850   1.406       .  A
C849        C853   1.506       .  S
C850        H854   1.084       .  S
C851        H861   1.111       .  S
C851        H862   1.108       .  S
C851        H863   1.109       .  S
C853        H864   1.110       .  S
C853        H865   1.108       .  S
C853        H866   1.110       .  S
C867        C868   1.399       .  A
C867        C872   1.398       .  A
C867        H877   1.084       .  S
C868        C873   1.477       .  S
C868        C869   1.407       .  A
C869        C870   1.401       .  A
C869        C874   1.501       .  S
C870        C871   1.406       .  A
C870        H875   1.084       .  S
C871        C872   1.419       .  A
C872        C876   1.505       .  S
C873        C878   1.418       .  A
C873        C882   1.402       .  A
C874        H890   1.108       .  S
C874        H891   1.109       .  S
C874        H892   1.111       .  S
C876        H887   1.111       .  S
C876        H888   1.109       .  S
C876        H889   1.110       .  S
C878        C879   1.393       .  A
C878        C883   1.514       .  S
C879        C880   1.398       .  A
C879        H884   1.081       .  S
C880       C2731   1.480       .  S
C880        C881   1.419       .  A
C881        C882   1.406       .  A
C881        C885   1.507       .  S
C882        H886   1.084       .  S
C883        H893   1.111       .  S
C883        H894   1.110       .  S
C883        H895   1.107       .  S
C885        H896   1.109       .  S
C885       H2949   1.108       .  S
C885       H2950   1.110       .  S
H897       C2937   1.108       .  S
H898       C2937   1.110       .  S
C899        C904   1.396       .  A
C899       C1926   1.410       .  A
C899        H909   1.083       .  S
C900        C905   1.486       .  S
C900        C901   1.412       .  A
C900       C1925   1.411       .  A
C901        C902   1.401       .  A
C901        C906   1.506       .  S
C902        C903   1.404       .  A
C902        H907   1.085       .  S
C903       C1930   1.410       .  A
C904       C1929   1.412       .  A
C904        C908   1.511       .  S
C905        C910   1.407       .  A
C905        C914   1.401       .  A
C906        H922   1.111       .  S
C906        H923   1.109       .  S
C906        H924   1.110       .  S
C908        H919   1.108       .  S
C908        H920   1.111       .  S
C908        H921   1.110       .  S
C910        C911   1.400       .  A
C910        C915   1.498       .  S
C911        C912   1.406       .  A
C911        H916   1.084       .  S
C912        C913   1.423       .  A
C913        C914   1.401       .  A
C913        C917   1.508       .  S
C914        H918   1.084       .  S
C915        H925   1.111       .  S
C915        H927   1.110       .  S
C915       H1952   1.106       .  S
C917        H928   1.111   1_556  S
C917        H929   1.109   1_556  S
C917        H930   1.107       .  S
H926       C1941   1.110       .  S
C931        C932   1.405       .  A
C931        C936   1.405       .  A
C931        H941   1.084       .  S
C932        C937   1.482       .  S
C932        C933   1.424       .  A
C933        C934   1.396       .  A
C933        C938   1.513       .  S
C934        C935   1.395       .  A
C934        H939   1.085   1_554  S
C935        C936   1.410       .  A
C936        C940   1.504       .  S
C937        C942   1.407       .  A
C937       C2998   1.401       .  A
C938        H954   1.108       .  S
C938        H955   1.106       .  S
C938        H956   1.111   1_554  S
C940        H951   1.110       .  S
C940        H953   1.108       .  S
C940       H3004   1.109       .  S
C942        C943   1.404       .  A
C942        C947   1.506       .  S
C943        C944   1.408       .  A
C943        H948   1.084       .  S
C944        C945   1.417       .  A
C945       C2998   1.399       .  A
C945       C3001   1.507       .  S
C946       C2989   1.401       .  A
C946       C2997   1.399       .  A
C946        H950   1.085       .  S
C947        H957   1.111       .  S
C947        H958   1.110       .  S
C947        H959   1.108       .  S
C949       C2997   1.508       .  S
C949        H960   1.111       .  S
C949        H961   1.110       .  S
C949        H962   1.109       .  S
H952       C2992   1.109       .  S
C963        C964   1.403       .  A
C963        C968   1.390       .  A
C963        H973   1.085       .  S
C964        C969   1.474       .  S
C964        C965   1.408       .  A
C965        C966   1.406       .  A
C965        C970   1.505       .  S
C966        C967   1.406       .  A
C966        H971   1.084       .  S
C967        C968   1.411       .  A
C968        C972   1.511       .  S
C969        C974   1.412       .  A
C969        C978   1.401       .  A
C970        H986   1.110       .  S
C970        H987   1.103       .  S
C970        H988   1.111       .  S
C972        H983   1.110       .  S
C972        H984   1.111       .  S
C972        H985   1.110       .  S
C974        C975   1.397       .  A
C974        C979   1.508       .  S
C975        C976   1.401       .  A
C975       H2006   1.076       .  S
C976       C1099   1.489       .  S
C976        C977   1.426       .  A
C977        C978   1.403       .  A
C977        C981   1.510       .  S
C978        H982   1.084       .  S
C979        H989   1.109       .  S
C979        H990   1.109       .  S
C979        H991   1.106       .  S
H980       C2001   1.076       .  S
C981        H992   1.109       .  S
C981        H993   1.110       .  S
C981        H994   1.110       .  S
C995        C996   1.404       .  A
C995       C3052   1.402       .  A
C995       H1005   1.084       .  S
C996       C1001   1.477   1_655  S
C996        C997   1.414       .  A
C997        C998   1.402       .  A
C997       C1002   1.508   1_655  S
C998       C3051   1.404       .  A
C998       H1003   1.084       .  S
C999       C1000   1.412       .  A
C999       C3050   1.405       .  A
C1000      C3047   1.401       .  A
C1000      C1004   1.503       .  S
C1001      C1006   1.408       .  A
C1001      C1010   1.403       .  A
C1002      H1018   1.110       .  S
C1002      H1019   1.108       .  S
C1002      H1020   1.111       .  S
C1004      H1015   1.110       .  S
C1004      H1016   1.108       .  S
C1004      H1017   1.111       .  S
C1006      C1007   1.410       .  A
C1006      C1011   1.503       .  S
C1007      C1008   1.407       .  A
C1007      H1012   1.084       .  S
C1008      C1009   1.411       .  A
C1009      C1010   1.392       .  A
C1009      C1013   1.510       .  S
C1010      H1014   1.086       .  S
C1011      H1021   1.108       .  S
C1011      H1022   1.110       .  S
C1011      H1023   1.108       .  S
C1013      H1024   1.110       .  S
C1013      H1025   1.107       .  S
C1013      H1026   1.111       .  S
Zr1027     O1028   2.440       .  S
Zr1027     O1029   2.428       .  S
Zr1027     O1030   2.482       .  S
Zr1027     O1033   2.435       .  S
Zr1027     O1035   2.383       .  S
Zr1027     O1036   2.384       .  S
Zr1027     O1037   2.401       .  S
Zr1027     O1038   2.411       .  S
O1028      H1084   0.990       .  S
O1028      H1092   0.990       .  S
O1029      C1049   1.284       .  A
O1030      C1051   1.291       .  A
O1031     Zr1041   2.400       .  S
O1031      C1050   1.278       .  A
O1032     Zr1040   2.399       .  S
O1032      C1051   1.279       .  A
O1033      C1050   1.285       .  A
O1034     Zr1042   2.440       .  S
O1034      C1049   1.284       .  A
O1035     Zr1040   2.399       .  S
O1035     Zr1042   2.385       .  S
O1036     Zr1041   2.369       .  S
O1036     Zr1042   2.357       .  S
O1036      H1071   0.965       .  S
O1037     Zr1040   2.398       .  S
O1037     Zr1057   2.370       .  S
O1037      H1074   0.964       .  S
O1038     Zr1041   2.395       .  S
O1038     Zr1057   2.386       .  S
Zr1039     O1064   2.443       .  S
Zr1039     O1058   2.475       .  S
Zr1039     O1066   2.461       .  S
Zr1039     O1054   2.454       .  S
Zr1039     O1045   2.417       .  S
Zr1039     O1046   2.422       .  S
Zr1039     O1047   2.382       .  S
Zr1039     O1048   2.389       .  S
Zr1040     O1059   2.439       .  S
Zr1040     O3104   2.434       .  S
Zr1040     O1053   2.412       .  S
Zr1040     O1046   2.395       .  S
Zr1040     O1047   2.388       .  S
Zr1041     O1043   2.437       .  S
Zr1041     O1065   2.439       .  S
Zr1041     O1067   2.398       .  S
Zr1041     O1045   2.393       .  S
Zr1041     O1048   2.388       .  S
Zr1042     O1068   2.437       .  S
Zr1042     O1069   2.439       .  S
Zr1042     O1044   2.439       .  S
Zr1042     O1045   2.414       .  S
Zr1042     O1046   2.398       .  S
O1043      H1080   0.990       .  S
O1044      H1075   0.990       .  S
O1044      H1089   0.989       .  S
O1046      H1072   0.964       .  S
O1047     Zr1057   2.391       .  S
O1048     Zr1057   2.381       .  S
O1048      H1073   0.966       .  S
C1049      C1097   1.472       .  S
C1050      C1101   1.442       .  S
C1051      C1729   1.468       .  S
O1052     Zr3092   2.435   1_455  S
O1052      H1088   0.990       .  S
O1053      C1055   1.279       .  A
O1054      C1055   1.286       .  A
C1055      C3159   1.457       .  S
O1056      H1085   0.990       .  S
Zr1057     O1060   2.435       .  S
Zr1057     O1061   2.440       .  S
Zr1057     O1062   2.383       .  S
O1058      C1063   1.291       .  A
O1059      H1076   0.990       .  S
O1059      H1091   0.990       .  S
O1060      H1077   0.990       .  S
O1061      H1090   0.990       .  S
O1062      C1063   1.274       .  A
C1063      C1113   1.470       .  S
O1064      H1083   0.990       .  S
O1064      H1087   0.991       .  S
O1065      H1079   0.990       .  S
O1065      H1086   0.990       .  S
O1066      C1070   1.284       .  A
O1067      C1070   1.278       .  A
O1068      H1078   0.990       .  S
O1069      H1082   0.991       .  S
C1070      C1759   1.465       .  S
C1093      C2025   1.483       .  S
C1093      N1094   1.353       .  A
C1093      N1098   1.356       .  A
N1094      C1095   1.357       .  A
C1095      C1295   1.463       .  S
C1095      N1096   1.362       .  A
N1096      C1097   1.364       .  A
C1097      N1098   1.358       .  A
C1099      N1100   1.340       .  A
C1099      N1104   1.359       .  A
N1100      C1101   1.344       .  A
C1101      N1102   1.362       .  A
N1102      C1103   1.363       .  A
C1103      C1434   1.472       .  S
C1103      N1104   1.364       .  A
C1105      C1970   1.481       .  S
C1105      N1106   1.350       .  A
C1105      N1110   1.352       .  A
N1106      C1107   1.356       .  A
C1107      C3107   1.456   1_455  S
C1107      N1108   1.363       .  A
N1108      C1109   1.364       .  A
C1109      C1499   1.467   1_554  S
C1109      N1110   1.356       .  A
C1111      C1929   1.476       .  S
C1111      N1112   1.358       .  A
C1111      N1116   1.357       .  A
N1112      C1113   1.357   1_556  A
C1113      N1114   1.366   1_554  A
N1114      C1115   1.358       .  A
C1115      N1116   1.355       .  A
Zr1117     O1118   2.440       .  S
Zr1117     O1119   2.453       .  S
Zr1117     O1120   2.501       .  S
Zr1117     O1123   2.465       .  S
Zr1117     O1125   2.379       .  S
Zr1117     O1126   2.400       .  S
Zr1117     O1127   2.414       .  S
Zr1117     O1128   2.413       .  S
O1118      H1174   0.990       .  S
O1118      H1182   0.990       .  S
O1119      C1139   1.288       .  A
O1120      C1141   1.296       .  A
O1121     Zr1131   2.412       .  S
O1121      C1140   1.280       .  A
O1122     Zr1130   2.439       .  S
O1122      C1141   1.285       .  A
O1123      C1140   1.290       .  A
O1124     Zr1132   2.425       .  S
O1124      C1139   1.279       .  A
O1125     Zr1130   2.390       .  S
O1125     Zr1132   2.388       .  S
O1126     Zr1131   2.400       .  S
O1126     Zr1132   2.377       .  S
O1126      H1161   0.967       .  S
O1127     Zr1130   2.394       .  S
O1127     Zr1147   2.380       .  S
O1127      H1164   0.963       .  S
O1128     Zr1131   2.406       .  S
O1128     Zr1147   2.381       .  S
Zr1129     O1154   2.440       .  S
Zr1129     O1148   2.464       .  S
Zr1129     O1156   2.493       .  S
Zr1129     O1144   2.467       .  S
Zr1129     O1135   2.414       .  S
Zr1129     O1136   2.429       .  S
Zr1129     O1137   2.403       .  S
Zr1129     O1138   2.411       .  S
Zr1130     O1149   2.438       .  S
Zr1130     O1142   2.434       .  S
Zr1130     O1143   2.418       .  S
Zr1130     O1136   2.408       .  S
Zr1130     O1137   2.386       .  S
Zr1131     O1133   2.437       .  S
Zr1131     O1155   2.440       .  S
Zr1131     O1157   2.442       .  S
Zr1131     O1135   2.389       .  S
Zr1131     O1138   2.400       .  S
Zr1132     O1158   2.438       .  S
Zr1132     O1159   2.436       .  S
Zr1132     O1134   2.438       .  S
Zr1132     O1135   2.401       .  S
Zr1132     O1136   2.403       .  S
O1133      H1170   0.990       .  S
O1134      H1165   0.990       .  S
O1134      H1179   0.990       .  S
O1136      H1162   0.970       .  S
O1137     Zr1147   2.386       .  S
O1138     Zr1147   2.399       .  S
O1138      H1163   0.967       .  S
C1139      C1403   1.477       .  S
C1140      C1625   1.462       .  S
C1141      C1741   1.493       .  S
O1142      H1178   0.990       .  S
O1143      C1145   1.281       .  A
O1144      C1145   1.289       .  A
C1145      C1253   1.466       .  S
O1146     Zr1147   2.442       .  S
O1146      H1175   0.990       .  S
Zr1147     O1150   2.441       .  S
Zr1147     O1151   2.441       .  S
Zr1147     O1152   2.403       .  S
O1148      C1153   1.279       .  A
O1149      H1166   0.990       .  S
O1149      H1181   0.990       .  S
O1150      H1167   0.990       .  S
O1151      H1171   0.988       .  S
O1151      H1180   0.990       .  S
O1152      C1153   1.264       .  A
C1153      C1545   1.463       .  S
O1154      H1173   0.990       .  S
O1154      H1177   0.990       .  S
O1155      H1169   0.990       .  S
O1155      H1176   0.990       .  S
O1156      C1160   1.293       .  A
O1157      C1160   1.285       .  A
O1158      H1168   0.990       .  S
O1159      H1172   0.990       .  S
C1160      C1735   1.496       .  S
Zr1183     O1184   2.441       .  S
Zr1183     O1185   2.437       .  S
Zr1183     O1186   2.510       .  S
Zr1183     O1189   2.480       .  S
Zr1183     O1191   2.387       .  S
Zr1183     O1192   2.398       .  S
Zr1183     O1193   2.414       .  S
Zr1183     O1194   2.410       .  S
O1184      H1240   0.991       .  S
O1184      H1248   0.990   1_565  S
O1185      C1205   1.284       .  A
O1186      C1207   1.297       .  A
O1187     Zr1197   2.389       .  S
O1187      C1206   1.275       .  A
O1188     Zr1196   2.424       .  S
O1188      C1207   1.283       .  A
O1189      C1206   1.294       .  A
O1190     Zr1198   2.450       .  S
O1190      C1205   1.284       .  A
O1191     Zr1196   2.399       .  S
O1191     Zr1198   2.385       .  S
O1192     Zr1197   2.389       .  S
O1192     Zr1198   2.372       .  S
O1192      H1227   0.966       .  S
O1193     Zr1196   2.397       .  S
O1193     Zr1213   2.382       .  S
O1193      H1230   0.963       .  S
O1194     Zr1197   2.408       .  S
O1194     Zr1213   2.380       .  S
Zr1195     O1220   2.441       .  S
Zr1195     O1214   2.461       .  S
Zr1195     O1222   2.498       .  S
Zr1195     O1210   2.469       .  S
Zr1195     O1201   2.411       .  S
Zr1195     O1202   2.435       .  S
Zr1195     O1203   2.402       .  S
Zr1195     O1204   2.409       .  S
Zr1196     O1215   2.439       .  S
Zr1196     O1208   2.434       .  S
Zr1196     O1209   2.425       .  S
Zr1196     O1202   2.407       .  S
Zr1196     O1203   2.375       .  S
Zr1197     O1199   2.439       .  S
Zr1197     O1221   2.438       .  S
Zr1197     O1223   2.420       .  S
Zr1197     O1201   2.379       .  S
Zr1197     O1204   2.387       .  S
Zr1198     O1224   2.436       .  S
Zr1198     O1225   2.432       .  S
Zr1198     O1200   2.437       .  S
Zr1198     O1201   2.406       .  S
Zr1198     O1202   2.410       .  S
O1199      H1236   0.990       .  S
O1200      H1231   0.990       .  S
O1200      H1245   0.990       .  S
O1202      H1228   0.965       .  S
O1203     Zr1213   2.385       .  S
O1204     Zr1213   2.398       .  S
O1204      H1229   0.966       .  S
C1205      C1251   1.482       .  S
C1206      C1257   1.457       .  S
C1207      C1749   1.491       .  S
O1208      H1244   0.990       .  S
O1209      C1211   1.280       .  A
O1210      C1211   1.290       .  A
C1211      C1261   1.467       .  S
O1212      H1241   0.990       .  S
Zr1213     O1216   2.443   1_565  S
Zr1213     O1217   2.437   1_565  S
Zr1213     O1218   2.396       .  S
O1214      C1219   1.278       .  A
O1215      H1232   0.990       .  S
O1215      H1247   0.990       .  S
O1217      H1246   0.988       .  S
O1218      C1219   1.265       .  A
O1220      H1239   0.990       .  S
O1220      H1243   0.990       .  S
O1221      H1235   0.990       .  S
O1221      H1242   0.990       .  S
O1222      C1226   1.294       .  A
O1223      C1226   1.281       .  A
O1224      H1234   0.990       .  S
O1225      H1238   0.990       .  S
C1226      C1755   1.494       .  S
C1249      C1897   1.488       .  S
C1249      N1250   1.356       .  A
C1249      N1254   1.348       .  A
N1250      C1251   1.362       .  A
C1251      N1252   1.372       .  A
N1252      C1253   1.368       .  A
C1253      N1254   1.351       .  A
C1255      N1256   1.364   1_545  A
N1256      C1257   1.355       .  A
C1257      N1258   1.351   1_565  A
C1259      C1865   1.471       .  S
C1259      N1260   1.358       .  A
C1261      N1262   1.354       .  A
C1261      N1266   1.376       .  A
N1262      C1263   1.345       .  A
C1263      C1833   1.485       .  S
C1263      N1264   1.349       .  A
N1264      C1265   1.358   1_556  A
C1265      C1361   1.490       .  S
C1265      N1266   1.374   1_554  A
Zr1267     O1268   2.442       .  S
Zr1267     O1269   2.419       .  S
Zr1267     O1270   2.474       .  S
Zr1267     O3325   2.417       .  S
Zr1267     O1275   2.377       .  S
Zr1267     O3328   2.388       .  S
Zr1267     O1277   2.401       .  S
Zr1267     O3330   2.408       .  S
O1268      H1324   0.991       .  S
O1268      H1332   0.990       .  S
O1269      C1289   1.283       .  A
O1270      C1291   1.288       .  A
O1271     Zr1281   2.443       .  S
O1271      C1290   1.286       .  A
O1272     Zr1280   2.421       .  S
O1272      C1291   1.284       .  A
O1273     Zr3319   2.409   1_455  S
O1273      C1290   1.279       .  A
O1274     Zr1282   2.415       .  S
O1274      C3341   1.278   1_455  A
O1275     Zr1280   2.396       .  S
O1275     Zr3334   2.392       .  S
O1276     Zr3319   2.390   1_455  S
O1276     Zr1281   2.376       .  S
O1276     Zr1282   2.366       .  S
O1276      H1311   0.965       .  S
O1277     Zr1280   2.393       .  S
O1277     Zr1297   2.378       .  S
O1277      H1314   0.964       .  S
O1278     Zr3319   2.408   1_455  S
O1278     Zr1281   2.391       .  S
O1278     Zr3349   2.388   1_455  S
Zr1279     O1304   2.442       .  S
Zr1279     O1298   2.474       .  S
Zr1279     O1306   2.476       .  S
Zr1279     O3346   2.456   1_455  S
Zr1279     O1285   2.420       .  S
Zr1279     O3338   2.415   1_455  S
Zr1279     O3339   2.383   1_455  S
Zr1279     O1288   2.391       .  S
Zr1280     O1299   2.438       .  S
Zr1280     O1292   2.435       .  S
Zr1280     O1293   2.418       .  S
Zr1280     O1286   2.401       .  S
Zr1280     O1287   2.389       .  S
Zr1281     O1283   2.435       .  S
Zr1281     O1305   2.438       .  S
Zr1281     O1307   2.413       .  S
Zr1281     O1285   2.398       .  S
Zr1281     O1288   2.402       .  S
Zr1282     O1308   2.433       .  S
Zr1282     O1309   2.435       .  S
Zr1282     O3336   2.438   1_455  S
Zr1282     O3327   2.394   1_455  S
Zr1282     O1285   2.400       .  S
Zr1282     O3338   2.379   1_455  S
O1283      H1320   0.990       .  S
O1284     Zr3334   2.438       .  S
O1284      H1315   0.990       .  S
O1284      H1329   0.990       .  S
O1286     Zr3331   2.417       .  S
O1286     Zr3334   2.383       .  S
O1286      H1312   0.963       .  S
O1287     Zr3331   2.384       .  S
O1287     Zr1297   2.387       .  S
O1288     Zr3349   2.378   1_455  S
O1288      H1313   0.966       .  S
C1289      O3326   1.280       .  A
C1289      C3603   1.466       .  S
C1290      C1707   1.451       .  S
C1291      C1739   1.474       .  S
O1292      H1328   0.990       .  S
O1293      C1295   1.282       .  A
O1294     Zr3331   2.464       .  S
O1294      C1295   1.288       .  A
O1296     Zr1297   2.438       .  S
O1296      H1325   0.990       .  S
Zr1297     O1300   2.437       .  S
Zr1297     O3353   2.437       .  S
Zr1297     O1302   2.398       .  S
Zr1297     O3330   2.388       .  S
Zr1297     O3340   2.382       .  S
O1298      C1303   1.291   1_455  A
O1299      H1316   0.990       .  S
O1299      H1331   0.990       .  S
O1300      H1317   0.990       .  S
O1301     Zr3349   2.438   1_455  S
O1301      H3373   0.990       .  S
O1301      H1330   0.990       .  S
O1302      C3355   1.276       .  A
C1303      O3354   1.276       .  A
C1303      C3457   1.477       .  S
O1304      H1323   0.990       .  S
O1304      H1327   0.990       .  S
O1305      H1319   0.990       .  S
O1305      H1326   0.990       .  S
O1306      C1310   1.288       .  A
O1307      C1310   1.282       .  A
O1308      H1318   0.989       .  S
O1309      H1322   0.990       .  S
C1310      C1743   1.478       .  S
H1321      O3353   0.990       .  S
Zr1333     O1334   2.441       .  S
Zr1333     O1335   2.479       .  S
Zr1333     O1336   2.493       .  S
Zr1333     O1339   2.477       .  S
Zr1333     O1341   2.401       .  S
Zr1333     O1342   2.401       .  S
Zr1333     O1343   2.429       .  S
Zr1333     O1344   2.411       .  S
O1334      H1390   0.990       .  S
O1334      H1398   0.991       .  S
O1335      C1355   1.290       .  A
O1336      C1357   1.294       .  A
O1337     Zr1347   2.428       .  S
O1337      C1356   1.272       .  A
O1338     Zr1346   2.457       .  S
O1338      C1357   1.289       .  A
O1339      C1356   1.290       .  A
O1340     Zr1348   2.400       .  S
O1340      C1355   1.277       .  A
O1341     Zr1346   2.411       .  S
O1341     Zr1348   2.384       .  S
O1342     Zr1347   2.398       .  S
O1342     Zr1348   2.376       .  S
O1342      H1377   0.965       .  S
O1343     Zr1346   2.405       .  S
O1343     Zr1363   2.371       .  S
O1343      H1380   0.963       .  S
O1344     Zr1347   2.387       .  S
O1344     Zr1363   2.371       .  S
Zr1345     O1370   2.441       .  S
Zr1345     O1364   2.482       .  S
Zr1345     O1372   2.491       .  S
Zr1345     O1360   2.432       .  S
Zr1345     O1351   2.401       .  S
Zr1345     O1352   2.427       .  S
Zr1345     O1353   2.385       .  S
Zr1345     O1354   2.385       .  S
Zr1346     O1365   2.439       .  S
Zr1346     O1358   2.433       .  S
Zr1346     O1359   2.479       .  S
Zr1346     O1352   2.409       .  S
Zr1346     O1353   2.400       .  S
Zr1347     O1349   2.436       .  S
Zr1347     O1371   2.441       .  S
Zr1347     O1373   2.411       .  S
Zr1347     O1351   2.388       .  S
Zr1347     O1354   2.399       .  S
Zr1348     O1374   2.434       .  S
Zr1348     O1375   2.436       .  S
Zr1348     O1350   2.438       .  S
Zr1348     O1351   2.384       .  S
Zr1348     O1352   2.390       .  S
O1349      H1386   0.990       .  S
O1350      H1381   0.990       .  S
O1350      H1395   0.990       .  S
O1352      H1378   0.965       .  S
O1353     Zr1363   2.377       .  S
O1354     Zr1363   2.387       .  S
O1354      H1379   0.966       .  S
C1355      C1401   1.467       .  S
C1356      C1407   1.468       .  S
C1357      C1733   1.488       .  S
O1358      H1394   0.990       .  S
O1359      C1361   1.290       .  A
O1360      C1361   1.286       .  A
O1362     Zr3415   2.434   1_455  S
O1362      H1391   0.990       .  S
Zr1363     O3414   2.434       .  S
Zr1363     O1366   2.436       .  S
Zr1363     O1367   2.431       .  S
Zr1363     O1368   2.374       .  S
O1364      C1369   1.290       .  A
O1365      H1382   0.990       .  S
O1365      H1397   0.990       .  S
O1366      H3435   0.991       .  S
O1367      H3439   0.989       .  S
O1367      H1396   0.989       .  S
O1368      C1369   1.272       .  A
C1369      C1721   1.466       .  S
O1370      H1389   0.990       .  S
O1370      H1393   0.990       .  S
O1371      H1385   0.990       .  S
O1371      H1392   0.990       .  S
O1372      C1376   1.294       .  A
O1373      C1376   1.280       .  A
O1374      H1384   0.990       .  S
O1375      H1388   0.990       .  S
C1376      C1763   1.477       .  S
H1383      O3418   0.991       .  S
H1387      O3419   0.989       .  S
C1399      C1993   1.461       .  S
C1399      N1400   1.345       .  A
C1399      N1404   1.351       .  A
N1400      C1401   1.349       .  A
C1401      N1402   1.370       .  A
N1402      C1403   1.374       .  A
C1403      N1404   1.358       .  A
C1405      C3355   1.475       .  S
C1405      N1406   1.371       .  A
C1405      N1410   1.360       .  A
N1406      C1407   1.361       .  A
C1407      N1408   1.349       .  A
N1408      C3461   1.353       .  A
C1409      C1801   1.476       .  S
C1409      N3460   1.353   1_455  A
C1409      N3462   1.360       .  A
N1410      C3461   1.358       .  A
Zr1411     O1412   2.447       .  S
Zr1411     O1413   2.464       .  S
Zr1411     O1414   2.456       .  S
Zr1411     O1419   2.380       .  S
Zr1411     O1421   2.400       .  S
O1412      H1468   0.990       .  S
O1412      H1476   0.989       .  S
O1413      C1433   1.292       .  A
O1414      C1435   1.286       .  A
O1415     Zr1425   2.470       .  S
O1415      C1434   1.280       .  A
O1416     Zr1424   2.445       .  S
O1416      C1435   1.288       .  A
O1417      C1434   1.267       .  A
O1418      C1433   1.276   1_545  A
O1419     Zr1424   2.381       .  S
O1420     Zr1425   2.408       .  S
O1420     Zr1426   2.362       .  S
O1420      H1455   0.964       .  S
O1421     Zr1424   2.382       .  S
O1421     Zr1441   2.387       .  S
O1421      H1458   0.965       .  S
O1422     Zr1425   2.402       .  S
Zr1423     O1448   2.444       .  S
Zr1423     O1442   2.434       .  S
Zr1423     O1450   2.446       .  S
Zr1423     O1429   2.407       .  S
Zr1423     O1432   2.401       .  S
Zr1424     O1443   2.434       .  S
Zr1424     O1436   2.436       .  S
Zr1424     O1437   2.413       .  S
Zr1424     O1430   2.407       .  S
Zr1424     O1431   2.399       .  S
Zr1425     O1427   2.434       .  S
Zr1425     O1449   2.440       .  S
Zr1425     O1451   2.440       .  S
Zr1425     O1429   2.408       .  S
Zr1425     O1432   2.404       .  S
Zr1426     O1452   2.436       .  S
Zr1426     O1453   2.436       .  S
Zr1426     O1429   2.385       .  S
O1427      H1464   0.990       .  S
O1428      H1459   0.990       .  S
O1428      H1473   0.990       .  S
O1430      H1456   0.964       .  S
O1431     Zr1441   2.379       .  S
O1432      H1457   0.966       .  S
C1435      C1745   1.480       .  S
O1436      H1472   0.990       .  S
O1437      C1439   1.280       .  A
O1438      C1439   1.284       .  A
C1439      C1713   1.447       .  S
O1440     Zr1441   2.437       .  S
O1440      H1469   0.990       .  S
Zr1441     O1444   2.437       .  S
Zr1441     O1446   2.407       .  S
O1442      C1447   1.282       .  A
O1443      H1460   0.990       .  S
O1443      H1475   0.990       .  S
O1444      H1461   0.990       .  S
O1445      H1474   0.990       .  S
O1448      H1467   0.991       .  S
O1448      H1471   0.991       .  S
O1449      H1463   0.990       .  S
O1449      H1470   0.990       .  S
O1450      C1454   1.282       .  A
O1451      C1454   1.287       .  A
O1452      H1462   0.990       .  S
O1453      H1466   0.990       .  S
C1454      C1737   1.470       .  S
Zr1477     O1478   2.440       .  S
Zr1477     O1479   2.417       .  S
Zr1477     O1480   2.495       .  S
Zr1477     O1483   2.450       .  S
Zr1477     O1485   2.386       .  S
Zr1477     O1486   2.390       .  S
Zr1477     O1487   2.396       .  S
Zr1477     O1488   2.411       .  S
O1478      H1534   0.990       .  S
O1478      H1542   0.990       .  S
O1479      C1499   1.284       .  A
O1480      C1501   1.294       .  A
O1481     Zr1491   2.430       .  S
O1481      C1500   1.283       .  A
O1482     Zr1490   2.422       .  S
O1482      C1501   1.283       .  A
O1483      C1500   1.288       .  A
O1484     Zr1492   2.436       .  S
O1484      C1499   1.283       .  A
O1485     Zr1490   2.397       .  S
O1485     Zr1492   2.389       .  S
O1486     Zr1491   2.379       .  S
O1486     Zr1492   2.359       .  S
O1486      H1521   0.965       .  S
O1487     Zr1490   2.392       .  S
O1487     Zr1507   2.369       .  S
O1487      H1524   0.964       .  S
O1488     Zr1491   2.395       .  S
O1488     Zr1507   2.391       .  S
Zr1489     O1514   2.442       .  S
Zr1489     O1508   2.480       .  S
Zr1489     O1516   2.483       .  S
Zr1489     O1504   2.462       .  S
Zr1489     O1495   2.413       .  S
Zr1489     O1496   2.425       .  S
Zr1489     O1497   2.389       .  S
Zr1489     O1498   2.390       .  S
Zr1490     O1509   2.436       .  S
Zr1490     O1502   2.437       .  S
Zr1490     O1503   2.419       .  S
Zr1490     O1496   2.398       .  S
Zr1490     O1497   2.397       .  S
Zr1491     O1493   2.435       .  S
Zr1491     O1515   2.439       .  S
Zr1491     O1517   2.419       .  S
Zr1491     O1495   2.396       .  S
Zr1491     O1498   2.389       .  S
Zr1492     O1518   2.436       .  S
Zr1492     O3571   2.437   1_455  S
Zr1492     O1494   2.437   1_455  S
Zr1492     O1495   2.405       .  S
Zr1492     O1496   2.388       .  S
O1493      H1530   0.990       .  S
O1494      H1525   0.990   1_655  S
O1494      H1539   0.990       .  S
O1496      H1522   0.964       .  S
O1497     Zr1507   2.389       .  S
O1498     Zr1507   2.388       .  S
O1498      H1523   0.966       .  S
C1500      C1637   1.462       .  S
C1501      C1757   1.486       .  S
O1502      H1538   0.990       .  S
O1503      C1505   1.281       .  A
O1504      C1505   1.289       .  A
C1505      C1549   1.461       .  S
O1506     Zr1507   2.436       .  S
O1506      H1535   0.990       .  S
Zr1507     O1510   2.436       .  S
Zr1507     O1511   2.440       .  S
Zr1507     O1512   2.384       .  S
O1508      C1513   1.293       .  A
O1509      H1526   0.990       .  S
O1509      H1541   0.990       .  S
O1510      H1527   0.990       .  S
O1511      H1531   0.990       .  S
O1511      H1540   0.990       .  S
O1512      C1513   1.273       .  A
C1513      C1547   1.472       .  S
O1514      H1533   0.990       .  S
O1514      H1537   0.991       .  S
O1515      H1529   0.990       .  S
O1515      H1536   0.990       .  S
O1516      C1520   1.290       .  A
O1517      C1520   1.282       .  A
O1518      H1528   0.990       .  S
O1519     Zr3544   2.440       .  S
O1519      H1532   0.991       .  S
C1520      C1751   1.485       .  S
C1543      C1769   1.464       .  S
C1543      N1544   1.352       .  A
C1543      N1548   1.356       .  A
N1544      C1545   1.349       .  A
C1545      N1546   1.361       .  A
N1546      C1547   1.369       .  A
C1547      N1548   1.356       .  A
C1549      N1550   1.361       .  A
C1549      N1554   1.361   1_455  A
N1550      C1551   1.362   1_455  A
C1551      C3341   1.458       .  S
C1551      N3604   1.348       .  A
N1552      C3603   1.351       .  A
N1552      C1553   1.349       .  A
C1553      C1874   1.492       .  S
C1553      N3606   1.357       .  A
N1554      C3605   1.357       .  A
Zr1555     O1556   2.436       .  S
Zr1555     O1557   2.449       .  S
Zr1555     O1558   2.445       .  S
Zr1555     O1561   2.414       .  S
Zr1555     O1563   2.379       .  S
Zr1555     O1564   2.394       .  S
Zr1555     O1565   2.404       .  S
Zr1555     O1566   2.410       .  S
O1556      H1612   0.991       .  S
O1556      H1620   0.991       .  S
O1557      C1577   1.288       .  A
O1558      C1579   1.280       .  A
O1559     Zr1569   2.493       .  S
O1559      C1578   1.286       .  A
O1560     Zr1568   2.436       .  S
O1560      C1579   1.286       .  A
O1561      C1578   1.274       .  A
O1562     Zr1570   2.417       .  S
O1562      C1577   1.280       .  A
O1563     Zr1568   2.397       .  S
O1563     Zr1570   2.387       .  S
O1564     Zr1569   2.397       .  S
O1564     Zr1570   2.365       .  S
O1564      H1599   0.964       .  S
O1565     Zr1568   2.392       .  S
O1565     Zr1585   2.393       .  S
O1565      H1602   0.965       .  S
O1566     Zr1569   2.404       .  S
O1566     Zr1585   2.396       .  S
Zr1567     O1592   2.444       .  S
Zr1567     O1586   2.458       .  S
Zr1567     O1594   2.446       .  S
Zr1567     O1582   2.459       .  S
Zr1567     O1573   2.418       .  S
Zr1567     O1574   2.410       .  S
Zr1567     O1575   2.383       .  S
Zr1567     O1576   2.397       .  S
Zr1568     O1587   2.437       .  S
Zr1568     O1580   2.437       .  S
Zr1568     O1581   2.430       .  S
Zr1568     O1574   2.401       .  S
Zr1568     O1575   2.395       .  S
Zr1569     O1571   2.433       .  S
Zr1569     O1593   2.438       .  S
Zr1569     O1595   2.450       .  S
Zr1569     O1573   2.412       .  S
Zr1569     O1576   2.411       .  S
Zr1570     O1596   2.434       .  S
Zr1570     O1572   2.439       .  S
Zr1570     O1573   2.398       .  S
Zr1570     O1574   2.376       .  S
O1571      H1608   0.990       .  S
O1572      H1603   0.990       .  S
O1572      H1617   0.990       .  S
O1574      H1600   0.964       .  S
O1575     Zr1585   2.386       .  S
O1576     Zr1585   2.384       .  S
O1576      H1601   0.966       .  S
C1577      C1725   1.468       .  S
C1578      C1633   1.489       .  S
C1579      C1761   1.470       .  S
O1580      H1616   0.990       .  S
O1581      C1583   1.282       .  A
O1582      C1583   1.288       .  A
C1583      C1627   1.464       .  S
O1584     Zr1585   2.438       .  S
O1584      H1613   0.990       .  S
Zr1585     O1588   2.438       .  S
Zr1585     O1589   2.439       .  S
Zr1585     O1590   2.400       .  S
O1586      C1591   1.287       .  A
O1587      H1604   0.990       .  S
O1587      H1619   0.990       .  S
O1588      H1605   0.990       .  S
O1589      H1609   0.990       .  S
O1589      H1618   0.990       .  S
O1590      C1591   1.276       .  A
C1591      C1623   1.469       .  S
O1592      H1611   0.990       .  S
O1592      H1615   0.991       .  S
O1593      H1607   0.990       .  S
O1593      H1614   0.990       .  S
O1594      C1598   1.282       .  A
O1595      C1598   1.289       .  A
O1596      H1606   0.990       .  S
O1597      H1610   0.990       .  S
C1598      C1731   1.477       .  S
C1621      C2034   1.460       .  S
C1621      N1622   1.356       .  A
C1621      N1626   1.354       .  A
N1622      C1623   1.358       .  A
C1623      N1624   1.365       .  A
N1624      C1625   1.360       .  A
C1625      N1626   1.353       .  A
C1627      N1628   1.360       .  A
C1627      N1632   1.363       .  A
C1629      C1810   1.479       .  S
C1629      N1630   1.351       .  A
C1631      N1632   1.364       .  A
C1633      N1634   1.360       .  A
C1633      N1638   1.373       .  A
N1634      C1635   1.352   1_554  A
C1635      C1842   1.470       .  S
C1635      N1636   1.343       .  A
N1636      C1637   1.349       .  A
C1637      N1638   1.375   1_556  A
Zr1639     O1640   2.435       .  S
Zr1639     O1641   2.409       .  S
Zr1639     O1642   2.453       .  S
Zr1639     O1645   2.410       .  S
Zr1639     O1647   2.382       .  S
Zr1639     O1648   2.402       .  S
Zr1639     O1649   2.394       .  S
Zr1639     O1650   2.408       .  S
O1640      H1696   0.991       .  S
O1640      H1704   0.990   1_455  S
O1641      C1661   1.280       .  A
O1642      C1663   1.284       .  A
O1643     Zr1653   2.472       .  S
O1643      C1662   1.282       .  A
O1644     Zr1652   2.435       .  S
O1644      C1663   1.284       .  A
O1645      C1662   1.274       .  A
O1646     Zr1654   2.427       .  S
O1646      C1661   1.282       .  A
O1647     Zr1652   2.390       .  S
O1647     Zr1654   2.389       .  S
O1648     Zr1653   2.402       .  S
O1648     Zr1654   2.357       .  S
O1648      H1683   0.964       .  S
O1649     Zr1652   2.391       .  S
O1649     Zr1669   2.384       .  S
O1649      H1686   0.965       .  S
O1650     Zr1653   2.406       .  S
O1650     Zr1669   2.395       .  S
Zr1651     O1676   2.441       .  S
Zr1651     O1670   2.445       .  S
Zr1651     O1678   2.455       .  S
Zr1651     O1666   2.473       .  S
Zr1651     O1657   2.417       .  S
Zr1651     O1658   2.407       .  S
Zr1651     O1659   2.381       .  S
Zr1651     O1660   2.394       .  S
Zr1652     O1671   2.437       .  S
Zr1652     O1665   2.414   1_565  S
Zr1652     O1658   2.403       .  S
Zr1652     O1659   2.400       .  S
Zr1653     O1655   2.434       .  S
Zr1653     O1677   2.439       .  S
Zr1653     O1679   2.445       .  S
Zr1653     O1657   2.415       .  S
Zr1653     O1660   2.399       .  S
Zr1654     O1680   2.436       .  S
Zr1654     O1681   2.437       .  S
Zr1654     O1656   2.438   1_565  S
Zr1654     O1657   2.403       .  S
Zr1654     O1658   2.384       .  S
O1655      H1692   0.990       .  S
O1656      H1701   0.990       .  S
O1658      H1684   0.965       .  S
O1659     Zr1669   2.385       .  S
O1660     Zr1669   2.386       .  S
O1660      H1685   0.966       .  S
C1661      C1715   1.455       .  S
C1662      C1709   1.480       .  S
C1663      C1747   1.474       .  S
O1664      H1700   0.990       .  S
O1665      C1667   1.280   1_545  A
O1666      C1667   1.291       .  A
O1668     Zr3721   2.435       .  S
O1668      H1697   0.990       .  S
Zr1669     O3720   2.437   1_455  S
Zr1669     O1672   2.435       .  S
Zr1669     O1673   2.439   1_455  S
Zr1669     O1674   2.401       .  S
O1670      C1675   1.287       .  A
O1671      H1688   0.990       .  S
O1671      H1703   0.990       .  S
O1672      H3741   0.990   1_455  S
O1673      H3745   0.990       .  S
O1673      H1702   0.990   1_655  S
O1674      C1675   1.276       .  A
C1675      C1719   1.463       .  S
O1676      H1695   0.990       .  S
O1676      H1699   0.991       .  S
O1677      H1691   0.990       .  S
O1677      H1698   0.990       .  S
O1678      C1682   1.286       .  A
O1679      C1682   1.286       .  A
O1680      H1690   0.990       .  S
O1681      H1694   0.990       .  S
C1682      C1753   1.482       .  S
H1689      O3724   0.990       .  S
H1693      O3725   0.990       .  S
C1705      C3958   1.482       .  S
C1705      N1706   1.344       .  A
C1705      N1710   1.356       .  A
N1706      C1707   1.350       .  A
C1707      N1708   1.368       .  A
N1708      C1709   1.366       .  A
C1709      N1710   1.360       .  A
C1711      N1712   1.355       .  A
C1711      N1716   1.354       .  A
N1712      C1713   1.357       .  A
C1713      N1714   1.355       .  A
N1714      C1715   1.356       .  A
C1715      N1716   1.353       .  A
C1717      C1961   1.464       .  S
C1717      N1718   1.349       .  A
C1717      N3774   1.354       .  A
N1718      C1719   1.353   1_554  A
C1719      N1720   1.367   1_556  A
N1720      C3773   1.363       .  A
C1721      N3772   1.365       .  A
C1721      N1722   1.355       .  A
N1722      C3769   1.352       .  A
C1723      C1938   1.490       .  S
C1723      N1724   1.353       .  A
C1723      N1728   1.359       .  A
N1724      C1725   1.355   1_556  A
C1725      N1726   1.364   1_554  A
N1726      C1727   1.360       .  A
C1727      N1728   1.357       .  A
C1729      N3782   1.353       .  A
N1730      C3781   1.351   1_455  A
N1730      C1731   1.347       .  A
N1732      C3785   1.376   1_455  A
C1733      N3784   1.371       .  A
C1733      N1734   1.368       .  A
C1735      N1736   1.370       .  A
C1735      N1740   1.375       .  A
N1736      C1737   1.362       .  A
C1737      N1738   1.346       .  A
N1738      C1739   1.349       .  A
C1739      N1740   1.371       .  A
C1741      N1742   1.373       .  A
C1741      N1746   1.372       .  A
N1742      C1743   1.368       .  A
C1743      N1744   1.353       .  A
N1744      C1745   1.349       .  A
C1745      N1746   1.364       .  A
C1747      N3800   1.359   1_455  A
N1748      C3799   1.361       .  A
N1748      C1749   1.367       .  A
N1750      C3803   1.369       .  A
C1751      N3802   1.369   1_455  A
C1751      N1752   1.360       .  A
C1753      N1754   1.357       .  A
C1753      N1758   1.356       .  A
N1754      C1755   1.365       .  A
C1755      N1756   1.372       .  A
N1756      C1757   1.373       .  A
C1757      N1758   1.362       .  A
C1759      N1760   1.350       .  A
C1759      N1764   1.361       .  A
N1760      C1761   1.347       .  A
C1761      N1762   1.364       .  A
N1762      C1763   1.369       .  A
C1763      N1764   1.367       .  A
C1765      C1766   1.401       .  A
C1765      C1770   1.401       .  A
C1765      H1775   1.084       .  S
C1766      C1771   1.470       .  S
C1766      C1767   1.417       .  A
C1767      C1768   1.391       .  A
C1767      C1772   1.512       .  S
C1768      C1769   1.398       .  A
C1768      H1773   1.085       .  S
C1769      C1770   1.414       .  A
C1770      C1774   1.506       .  S
C1771      C1776   1.412       .  A
C1771      C1780   1.400       .  A
C1772      H1788   1.109       .  S
C1772      H1789   1.110       .  S
C1772      H1790   1.111       .  S
C1774      H1785   1.110       .  S
C1774      H1786   1.110       .  S
C1774      H1787   1.108       .  S
C1776      C1777   1.393       .  A
C1776      C1781   1.513       .  S
C1777      C1778   1.408       .  A
C1778      C1779   1.418       .  A
C1779      C1780   1.401       .  A
C1779      C1783   1.506       .  S
C1780      H1784   1.084       .  S
C1781      H1791   1.111       .  S
C1781      H1792   1.107       .  S
C1781      H1793   1.110       .  S
C1783      H1794   1.107       .  S
C1783      H1795   1.111       .  S
C1783      H1796   1.110       .  S
C1797      C1798   1.406       .  A
C1797      C1802   1.407       .  A
C1797      H1807   1.084       .  S
C1798      C1803   1.478       .  S
C1798      C1799   1.416       .  A
C1799      C1800   1.390       .  A
C1799      C1804   1.512       .  S
C1800      C1801   1.399       .  A
C1800      H1805   1.082       .  S
C1801      C1802   1.413       .  A
C1802      C1806   1.504       .  S
C1803      C1808   1.413       .  A
C1803      C1812   1.403       .  A
C1804      H1820   1.108       .  S
C1804      H1821   1.109       .  S
C1804      H1822   1.106       .  S
C1806      H1817   1.110       .  S
C1806      H1818   1.111       .  S
C1806      H1819   1.109       .  S
C1808      C1809   1.391       .  A
C1808      C1813   1.512       .  S
C1809      C1810   1.405       .  A
C1809      H1814   1.083       .  S
C1810      C1811   1.418       .  A
C1811      C1812   1.405       .  A
C1811      C1815   1.506       .  S
C1812      H1816   1.081       .  S
C1813      H1823   1.111       .  S
C1813      H1824   1.108       .  S
C1813      H1825   1.110       .  S
C1815      H1826   1.105       .  S
C1815      H1828   1.111       .  S
C1829      C1830   1.399       .  A
C1829      C1834   1.399       .  A
C1829      H1839   1.085       .  S
C1830      C1835   1.474       .  S
C1830      C1831   1.404       .  A
C1831      C1832   1.402       .  A
C1831      C1836   1.506       .  S
C1832      C1833   1.410       .  A
C1832      H1837   1.083       .  S
C1833      C1834   1.421       .  A
C1834      C1838   1.507       .  S
C1835      C1840   1.418       .  A
C1835      C1844   1.402       .  A
C1836      H1852   1.110       .  S
C1836      H1853   1.109       .  S
C1836      H1854   1.111       .  S
C1838      H1849   1.110       .  S
C1838      H1850   1.110       .  S
C1838      H1851   1.110       .  S
C1840      C1841   1.394       .  A
C1840      C1845   1.512   1_556  S
C1841      C1842   1.397       .  A
C1841      H1846   1.083   1_556  S
C1842      C1843   1.415       .  A
C1843      C1844   1.404       .  A
C1843      C1847   1.506       .  S
C1844      H1848   1.084       .  S
C1845      H1855   1.111       .  S
C1845      H1856   1.110   1_554  S
C1845      H1857   1.107       .  S
C1847      H1858   1.111       .  S
C1847      H1859   1.109       .  S
C1847      H1860   1.108       .  S
C1861      C1862   1.409       .  A
C1861      C1866   1.407       .  A
C1861      H1871   1.083       .  S
C1862      C1867   1.494       .  S
C1862      C1863   1.426       .  A
C1863      C1864   1.392       .  A
C1863      C1868   1.513       .  S
C1864      C1865   1.396       .  A
C1864      H1869   1.085       .  S
C1865      C1866   1.412       .  A
C1866      C1870   1.507       .  S
C1867      C1872   1.416       .  A
C1867      C1876   1.407       .  A
C1868      H1884   1.108       .  S
C1868      H1885   1.109       .  S
C1868      H1886   1.111       .  S
C1870      H1881   1.111       .  S
C1870      H1882   1.108       .  S
C1870      H1883   1.109       .  S
C1872      C1873   1.399       .  A
C1872      C1877   1.508       .  S
C1873      C1874   1.406       .  A
C1873      H1878   1.084       .  S
C1874      C1875   1.414       .  A
C1875      C1876   1.408       .  A
C1875      C1879   1.503       .  S
C1876      H1880   1.084       .  S
C1877      H1887   1.111       .  S
C1877      H1888   1.110       .  S
C1877      H1889   1.109       .  S
C1879      H1890   1.110       .  S
C1879      H1891   1.109       .  S
C1879      H1892   1.110       .  S
C1893      C1894   1.400       .  A
C1893      C1898   1.399       .  A
C1893      H1903   1.084       .  S
C1894      C1899   1.481       .  S
C1894      C1895   1.409       .  A
C1895      C1896   1.403       .  A
C1895      C1900   1.501       .  S
C1896      C1897   1.406       .  A
C1896      H1901   1.084       .  S
C1897      C1898   1.418       .  A
C1898      C1902   1.505       .  S
C1899      C1904   1.419       .  A
C1899      C1908   1.403       .  A
C1900      H1916   1.109       .  S
C1900      H1917   1.109       .  S
C1900      H1918   1.111       .  S
C1902      H1913   1.111       .  S
C1902      H1914   1.109       .  S
C1902      H1915   1.110       .  S
C1904      C1905   1.392       .  A
C1904      C1909   1.514       .  S
C1905      C1906   1.397       .  A
C1905      H1910   1.081       .  S
C1906      C3757   1.481       .  S
C1906      C1907   1.419       .  A
C1907      C1908   1.408       .  A
C1907      C1911   1.507       .  S
C1908      H1912   1.084       .  S
C1909      H1919   1.111       .  S
C1909      H1920   1.110       .  S
C1909      H1921   1.107       .  S
C1911      H1922   1.109       .  S
C1911      H3975   1.109       .  S
C1911      H3976   1.109       .  S
H1923      C3963   1.108       .  S
H1924      C3963   1.110       .  S
C1925      C1930   1.398       .  A
C1925      H1935   1.084       .  S
C1926      C1931   1.490       .  S
C1926      C1927   1.412       .  A
C1927      C1928   1.405       .  A
C1927      C1932   1.506       .  S
C1928      C1929   1.406       .  A
C1928      H1933   1.084       .  S
C1930      C1934   1.511       .  S
C1931      C1936   1.407       .  A
C1931      C1940   1.403       .  A
C1932      H1948   1.110       .  S
C1932      H1949   1.110       .  S
C1932      H1950   1.111       .  S
C1934      H1945   1.108   1_545  S
C1934      H1946   1.111       .  S
C1934      H1947   1.111       .  S
C1936      C1937   1.402       .  A
C1936      C1941   1.503       .  S
C1937      C1938   1.410       .  A
C1937      H1942   1.084       .  S
C1938      C1939   1.423       .  A
C1939      C1940   1.403       .  A
C1939      C1943   1.508       .  S
C1940      H1944   1.084       .  S
C1941      H1951   1.111       .  S
C1941      H1953   1.109       .  S
C1943      H1954   1.111       .  S
C1943      H1955   1.109   1_556  S
C1943      H1956   1.109       .  S
C1957      C1958   1.406       .  A
C1957      C1962   1.406       .  A
C1957      H1967   1.084       .  S
C1958      C1963   1.483       .  S
C1958      C1959   1.425       .  A
C1959      C1960   1.395       .  A
C1959      C1964   1.513       .  S
C1960      C1961   1.393       .  A
C1960      H1965   1.085   1_554  S
C1961      C1962   1.408       .  A
C1962      C1966   1.503       .  S
C1963      C1968   1.407       .  A
C1963      C4024   1.401       .  A
C1964      H1980   1.108       .  S
C1964      H1981   1.106       .  S
C1964      H1982   1.111   1_554  S
C1966      H1977   1.110       .  S
C1966      H4030   1.106       .  S
C1966      H1979   1.109       .  S
C1968      C1969   1.403       .  A
C1968      C1973   1.506       .  S
C1969      C1970   1.409       .  A
C1969      H1974   1.084       .  S
C1970      C1971   1.419       .  A
C1971      C4024   1.400       .  A
C1971      C4027   1.508       .  S
C1972      C4015   1.401       .  A
C1972      C4023   1.398       .  A
C1972      H1976   1.085       .  S
C1973      H1983   1.111       .  S
C1973      H1984   1.110       .  S
C1973      H1985   1.109       .  S
C1975      C4023   1.504       .  S
C1975      H1986   1.111       .  S
C1975      H1987   1.109       .  S
C1975      H1988   1.110       .  S
H1978      C4018   1.106       .  S
C1989      C1990   1.400       .  A
C1989      C1994   1.387       .  A
C1989      H1999   1.085       .  S
C1990      C1995   1.468       .  S
C1990      C1991   1.407       .  A
C1991      C1992   1.405       .  A
C1991      C1996   1.504       .  S
C1992      C1993   1.406       .  A
C1992      H1997   1.084       .  S
C1993      C1994   1.412       .  A
C1994      C1998   1.511       .  S
C1995      C2000   1.412       .  A
C1995      C2004   1.399       .  A
C1996      H2012   1.111       .  S
C1996      H2013   1.104       .  S
C1996      H2014   1.111       .  S
C1998      H2009   1.110       .  S
C1998      H2010   1.111       .  S
C1998      H2011   1.109       .  S
C2000      C2001   1.397       .  A
C2000      C2005   1.510       .  S
C2001      C2002   1.402       .  A
C2002      C2003   1.426       .  A
C2003      C2004   1.402       .  A
C2003      C2007   1.510       .  S
C2004      H2008   1.084       .  S
C2005      H2015   1.109       .  S
C2005      H2016   1.110       .  S
C2005      H2017   1.107       .  S
C2007      H2018   1.108       .  S
C2007      H2019   1.110       .  S
C2007      H2020   1.110       .  S
C2021      C2022   1.400       .  A
C2021      C4078   1.401       .  A
C2021      H2031   1.085       .  S
C2022      C2027   1.476   1_655  S
C2022      C2023   1.410       .  A
C2023      C2024   1.404       .  A
C2023      C2028   1.505   1_655  S
C2024      C4077   1.406       .  A
C2024      H2029   1.084       .  S
C2025      C4076   1.406       .  A
C2025      C2026   1.413       .  A
C2026      C4073   1.402       .  A
C2026      C2030   1.504       .  S
C2027      C2032   1.408       .  A
C2027      C2036   1.403       .  A
C2028      H2044   1.110       .  S
C2028      H2045   1.110       .  S
C2028      H2046   1.111       .  S
C2030      H2041   1.110       .  S
C2030      H2042   1.109       .  S
C2030      H2043   1.110       .  S
C2032      C2033   1.409       .  A
C2032      C2037   1.503       .  S
C2033      C2034   1.406       .  A
C2033      H2038   1.084       .  S
C2034      C2035   1.410       .  A
C2035      C2036   1.389       .  A
C2035      C2039   1.511       .  S
C2036      H2040   1.086       .  S
C2037      H2047   1.111       .  S
C2037      H2048   1.110       .  S
C2037      H2049   1.110       .  S
C2039      H2050   1.110       .  S
C2039      H2051   1.108       .  S
C2039      H2052   1.111       .  S
Zr2053     O2054   2.439       .  S
Zr2053     O2055   2.423       .  S
Zr2053     O2056   2.477       .  S
Zr2053     O2059   2.436       .  S
Zr2053     O2061   2.384       .  S
Zr2053     O2062   2.387       .  S
Zr2053     O2063   2.400       .  S
Zr2053     O2064   2.409       .  S
O2054      H2110   0.989       .  S
O2054      H2118   0.990   1_545  S
O2055      C2075   1.284       .  A
O2056      C2077   1.290       .  A
O2057     Zr2067   2.417       .  S
O2057      C2076   1.282       .  A
O2058     Zr2066   2.402       .  S
O2058      C2077   1.280       .  A
O2059      C2076   1.285       .  A
O2060     Zr2068   2.439       .  S
O2060      C2075   1.284       .  A
O2061     Zr2066   2.394       .  S
O2061     Zr2068   2.386       .  S
O2062     Zr2067   2.371       .  S
O2062     Zr2068   2.365       .  S
O2062      H2097   0.965       .  S
O2063     Zr2066   2.391       .  S
O2063     Zr2083   2.369       .  S
O2063      H2100   0.964       .  S
O2064     Zr2067   2.388       .  S
O2064     Zr2083   2.388       .  S
Zr2065     O2090   2.442       .  S
Zr2065     O2084   2.466       .  S
Zr2065     O2092   2.470       .  S
Zr2065     O2080   2.449       .  S
Zr2065     O2071   2.407       .  S
Zr2065     O2072   2.420       .  S
Zr2065     O2073   2.386       .  S
Zr2065     O2074   2.388       .  S
Zr2066     O2085   2.438       .  S
Zr2066     O2079   2.407       .  S
Zr2066     O2072   2.392       .  S
Zr2066     O2073   2.390       .  S
Zr2067     O2069   2.435       .  S
Zr2067     O2091   2.437       .  S
Zr2067     O2093   2.401       .  S
Zr2067     O2071   2.390       .  S
Zr2067     O2074   2.385       .  S
Zr2068     O2094   2.437       .  S
Zr2068     O2095   2.440       .  S
Zr2068     O2070   2.439   1_655  S
Zr2068     O2071   2.406       .  S
Zr2068     O2072   2.397       .  S
O2069      H2106   0.990       .  S
O2070      H2101   0.990       .  S
O2070      H2115   0.990       .  S
O2072      H2098   0.965       .  S
O2073     Zr2083   2.388       .  S
O2074     Zr2083   2.379       .  S
O2074      H2099   0.966       .  S
C2075      C2123   1.469       .  S
C2076      C2127   1.450       .  S
C2077      C2755   1.468       .  S
O2078      H2114   0.990       .  S
O2079      C2081   1.279       .  A
O2080      C2081   1.285       .  A
O2082     Zr3109   2.435       .  S
O2082      H2111   0.990       .  S
Zr2083     O3108   2.436   1_545  S
Zr2083     O2086   2.437   1_545  S
Zr2083     O2087   2.438   1_545  S
Zr2083     O2088   2.393       .  S
O2084      C2089   1.290       .  A
O2085      H2102   0.990       .  S
O2085      H2117   0.990       .  S
O2086      H2103   0.990       .  S
O2087      H3133   0.990   1_565  S
O2087      H2116   0.990       .  S
O2088      C2089   1.276       .  A
C2089      C2139   1.468       .  S
O2090      H2109   0.990       .  S
O2090      H2113   0.991       .  S
O2091      H2105   0.990       .  S
O2091      H2112   0.990       .  S
O2092      C2096   1.286       .  A
O2093      C2096   1.279       .  A
O2094      H2104   0.990       .  S
O2095      H2108   0.990   1_655  S
C2096      C2785   1.472       .  S
H2107      O3113   0.989       .  S
C2119      C3051   1.484       .  S
C2119      N2120   1.354       .  A
C2119      N2124   1.355       .  A
N2120      C2121   1.358       .  A
C2121      C2321   1.461       .  S
C2121      N2122   1.361       .  A
N2122      C2123   1.364       .  A
C2123      N2124   1.357       .  A
C2125      C4054   1.488       .  S
C2125      N2126   1.342   1_565  A
C2125      N2130   1.357       .  A
N2126      C2127   1.347       .  A
C2127      N2128   1.366       .  A
N2128      C2129   1.366       .  A
C2129      C2460   1.476       .  S
C2129      N2130   1.362   1_545  A
C2131      C2996   1.482       .  S
C2131      N2132   1.350       .  A
C2131      N2136   1.355       .  A
N2132      C2133   1.355       .  A
C2133      N2134   1.363       .  A
N2134      C2135   1.365       .  A
C2135      C2525   1.471   1_554  S
C2135      N2136   1.359       .  A
C2137      C2955   1.481       .  S
C2137      N2138   1.358       .  A
C2137      N2142   1.360       .  A
N2138      C2139   1.356   1_556  A
C2139      N2140   1.363   1_554  A
N2140      C2141   1.357   1_545  A
C2141      C3271   1.467       .  S
C2141      N2142   1.359   1_565  A
Zr2143     O2144   2.441       .  S
Zr2143     O2145   2.445       .  S
Zr2143     O2146   2.501       .  S
Zr2143     O2149   2.476       .  S
Zr2143     O2151   2.388       .  S
Zr2143     O2152   2.403       .  S
Zr2143     O2153   2.415       .  S
Zr2143     O2154   2.402       .  S
O2144      H2200   0.990       .  S
O2144      H2208   0.990       .  S
O2145      C2165   1.287       .  A
O2146      C2167   1.295       .  A
O2147     Zr2157   2.424       .  S
O2147      C2166   1.282       .  A
O2148     Zr2156   2.441       .  S
O2148      C2167   1.285       .  A
O2149      C2166   1.293       .  A
O2150     Zr2158   2.432       .  S
O2150      C2165   1.280       .  A
O2151     Zr2156   2.393       .  S
O2151     Zr2158   2.389       .  S
O2152     Zr2157   2.399       .  S
O2152     Zr2158   2.380       .  S
O2152      H2187   0.967       .  S
O2153     Zr2156   2.397       .  S
O2153     Zr2173   2.375       .  S
O2153      H2190   0.963       .  S
O2154     Zr2157   2.402       .  S
O2154     Zr2173   2.375       .  S
Zr2155     O2180   2.440       .  S
Zr2155     O2174   2.470       .  S
Zr2155     O2182   2.500       .  S
Zr2155     O2170   2.474       .  S
Zr2155     O2161   2.417       .  S
Zr2155     O2162   2.434       .  S
Zr2155     O2163   2.399       .  S
Zr2155     O2164   2.410       .  S
Zr2156     O2175   2.436       .  S
Zr2156     O2168   2.435       .  S
Zr2156     O2169   2.419       .  S
Zr2156     O2162   2.407       .  S
Zr2156     O2163   2.380       .  S
Zr2157     O2159   2.436       .  S
Zr2157     O2181   2.441       .  S
Zr2157     O2183   2.441       .  S
Zr2157     O2161   2.395       .  S
Zr2157     O2164   2.401       .  S
Zr2158     O2184   2.437       .  S
Zr2158     O2185   2.437       .  S
Zr2158     O2160   2.436       .  S
Zr2158     O2161   2.407       .  S
Zr2158     O2162   2.406       .  S
O2159      H2196   0.990       .  S
O2160      H2191   0.990       .  S
O2160      H2205   0.988       .  S
O2162      H2188   0.971       .  S
O2163     Zr2173   2.384       .  S
O2164     Zr2173   2.398       .  S
O2164      H2189   0.967       .  S
C2165      C2429   1.475       .  S
C2166      C2651   1.471       .  S
C2167      C2767   1.492       .  S
O2168      H2204   0.990       .  S
O2169      C2171   1.281       .  A
O2170      C2171   1.291       .  A
C2171      C2279   1.468       .  S
O2172     Zr2173   2.440       .  S
O2172      H2201   0.990       .  S
Zr2173     O2176   2.441       .  S
Zr2173     O2177   2.440       .  S
Zr2173     O2178   2.401       .  S
O2174      C2179   1.280       .  A
O2175      H2192   0.990       .  S
O2175      H2207   0.990       .  S
O2176      H2193   0.990       .  S
O2177      H2197   0.989       .  S
O2177      H2206   0.990       .  S
O2178      C2179   1.264       .  A
C2179      C2571   1.462       .  S
O2180      H2199   0.990       .  S
O2180      H2203   0.990       .  S
O2181      H2195   0.990       .  S
O2181      H2202   0.990       .  S
O2182      C2186   1.295       .  A
O2183      C2186   1.285       .  A
O2184      H2194   0.990       .  S
O2185      H2198   0.990       .  S
C2186      C2761   1.500       .  S
Zr2209     O2210   2.440       .  S
Zr2209     O2211   2.445       .  S
Zr2209     O2212   2.511       .  S
Zr2209     O2215   2.474       .  S
Zr2209     O2217   2.387       .  S
Zr2209     O2218   2.400       .  S
Zr2209     O2219   2.414       .  S
Zr2209     O2220   2.411       .  S
O2210      H2266   0.990       .  S
O2210      H2274   0.990       .  S
O2211      C2231   1.286       .  A
O2212      C2233   1.297       .  A
O2213     Zr2223   2.382       .  S
O2213      C2232   1.275       .  A
O2214     Zr2222   2.417       .  S
O2214      C2233   1.281       .  A
O2215      C2232   1.292       .  A
O2216     Zr2224   2.442       .  S
O2216      C2231   1.283       .  A
O2217     Zr2222   2.397       .  S
O2217     Zr2224   2.386       .  S
O2218     Zr2223   2.390       .  S
O2218     Zr2224   2.371       .  S
O2218      H2253   0.966       .  S
O2219     Zr2222   2.394       .  S
O2219     Zr2239   2.384       .  S
O2219      H2256   0.963       .  S
O2220     Zr2223   2.405       .  S
O2220     Zr2239   2.378       .  S
Zr2221     O2246   2.442       .  S
Zr2221     O2240   2.468       .  S
Zr2221     O2248   2.494       .  S
Zr2221     O2236   2.471       .  S
Zr2221     O2227   2.412       .  S
Zr2221     O2228   2.435       .  S
Zr2221     O2229   2.405       .  S
Zr2221     O2230   2.410       .  S
Zr2222     O2241   2.438       .  S
Zr2222     O2234   2.435       .  S
Zr2222     O2235   2.408       .  S
Zr2222     O2228   2.408       .  S
Zr2222     O2229   2.380       .  S
Zr2223     O2225   2.438       .  S
Zr2223     O2247   2.437       .  S
Zr2223     O2249   2.420       .  S
Zr2223     O2227   2.379       .  S
Zr2223     O2230   2.386       .  S
Zr2224     O2250   2.436       .  S
Zr2224     O2251   2.430       .  S
Zr2224     O2226   2.437       .  S
Zr2224     O2227   2.404       .  S
Zr2224     O2228   2.407       .  S
O2225      H2262   0.990       .  S
O2226      H2257   0.990       .  S
O2226      H2271   0.990       .  S
O2228      H2254   0.965       .  S
O2229     Zr2239   2.386       .  S
O2230     Zr2239   2.398       .  S
O2230      H2255   0.966       .  S
C2231      C2277   1.481       .  S
C2232      C2283   1.454       .  S
C2233      C2775   1.490       .  S
O2234      H2270   0.990       .  S
O2235      C2237   1.279       .  A
O2236      C2237   1.290       .  A
C2237      C2287   1.460       .  S
O2238     Zr3265   2.442   1_545  S
O2238      H2267   0.990       .  S
Zr2239     O3264   2.439       .  S
Zr2239     O2242   2.441       .  S
Zr2239     O2243   2.438       .  S
Zr2239     O2244   2.396       .  S
O2240      C2245   1.279       .  A
O2241      H2258   0.990       .  S
O2241      H2273   0.990       .  S
O2242      H3285   0.990       .  S
O2243      H3289   0.989       .  S
O2243      H2272   0.989       .  S
O2244      C2245   1.264       .  A
C2245      C3167   1.466       .  S
O2246      H2265   0.991       .  S
O2246      H2269   0.990       .  S
O2247      H2261   0.990       .  S
O2247      H2268   0.990       .  S
O2248      C2252   1.294       .  A
O2249      C2252   1.281       .  A
O2250      H2260   0.990       .  S
O2251      H2264   0.990       .  S
C2252      C2781   1.492       .  S
H2259      O3268   0.990       .  S
H2263      O3269   0.988   1_565  S
C2275      C2923   1.488       .  S
C2275      N2276   1.356       .  A
C2275      N2280   1.347       .  A
N2276      C2277   1.362       .  A
C2277      N2278   1.373       .  A
N2278      C2279   1.368       .  A
C2279      N2280   1.349       .  A
C2281      C3499   1.464       .  S
C2281      N2282   1.363       .  A
C2281      N3312   1.360       .  A
N2282      C2283   1.355       .  A
C2283      N2284   1.351       .  A
N2284      C3311   1.353       .  A
C2285      C2891   1.488       .  S
C2285      N3310   1.352       .  A
C2285      N2286   1.362       .  A
N2286      C3307   1.364       .  A
C2287      N2288   1.354       .  A
C2287      N2292   1.371       .  A
N2288      C2289   1.346       .  A
C2289      C2859   1.487       .  S
C2289      N2290   1.349       .  A
N2290      C2291   1.361   1_556  A
C2291      C2387   1.482       .  S
C2291      N2292   1.370   1_554  A
Zr2293     O2294   2.442       .  S
Zr2293     O2295   2.431       .  S
Zr2293     O2296   2.482       .  S
Zr2293     O2301   2.376       .  S
Zr2293     O2303   2.396       .  S
O2294      H2350   0.990       .  S
O2294      H2358   0.990       .  S
O2295      C2315   1.286       .  A
O2296      C2317   1.289       .  A
O2297     Zr2307   2.440       .  S
O2297      C2316   1.286       .  A
O2298     Zr2306   2.421       .  S
O2298      C2317   1.283       .  A
O2299      C2316   1.281       .  A
O2300     Zr2308   2.416       .  S
O2301     Zr2306   2.396       .  S
O2302     Zr2307   2.376       .  S
O2302     Zr2308   2.367       .  S
O2302      H2337   0.966       .  S
O2303     Zr2306   2.385       .  S
O2303     Zr2323   2.381       .  S
O2303      H2340   0.964       .  S
O2304     Zr2307   2.391       .  S
Zr2305     O2330   2.444       .  S
Zr2305     O2324   2.453       .  S
Zr2305     O2332   2.478       .  S
Zr2305     O2311   2.413       .  S
Zr2305     O2314   2.393       .  S
Zr2306     O2325   2.435       .  S
Zr2306     O2318   2.435       .  S
Zr2306     O2319   2.411       .  S
Zr2306     O2312   2.404       .  S
Zr2306     O2313   2.390       .  S
Zr2307     O2309   2.436       .  S
Zr2307     O2331   2.437       .  S
Zr2307     O2333   2.412       .  S
Zr2307     O2311   2.399       .  S
Zr2307     O2314   2.401       .  S
Zr2308     O2334   2.436       .  S
Zr2308     O2335   2.437       .  S
Zr2308     O2311   2.395       .  S
O2309      H2346   0.990       .  S
O2310      H2341   0.990       .  S
O2310      H2355   0.990       .  S
O2312      H2338   0.964       .  S
O2313     Zr2323   2.386       .  S
O2314      H2339   0.966       .  S
C2316      C2733   1.457       .  S
C2317      C2765   1.481       .  S
O2318      H2354   0.990       .  S
O2319      C2321   1.280       .  A
O2320      C2321   1.289       .  A
O2322     Zr2323   2.436       .  S
O2322      H2351   0.990       .  S
Zr2323     O2326   2.435       .  S
Zr2323     O2328   2.396       .  S
O2324      C2329   1.287       .  A
O2325      H2342   0.990       .  S
O2325      H2357   0.990       .  S
O2326      H2343   0.990       .  S
O2327      H2356   0.990       .  S
O2330      H2349   0.991       .  S
O2330      H2353   0.991       .  S
O2331      H2345   0.990       .  S
O2331      H2352   0.990       .  S
O2332      C2336   1.288       .  A
O2333      C2336   1.281       .  A
O2334      H2344   0.990       .  S
O2335      H2348   0.990       .  S
C2336      C2769   1.477       .  S
Zr2359     O2360   2.440       .  S
Zr2359     O2361   2.477       .  S
Zr2359     O2362   2.501       .  S
Zr2359     O2365   2.469       .  S
Zr2359     O2367   2.400       .  S
Zr2359     O2368   2.405       .  S
Zr2359     O2369   2.429       .  S
Zr2359     O2370   2.415       .  S
O2360      H2416   0.990       .  S
O2360      H2424   0.990       .  S
O2361      C2381   1.288       .  A
O2362      C2383   1.297       .  A
O2363     Zr2373   2.425       .  S
O2363      C2382   1.272       .  A
O2364     Zr2372   2.467       .  S
O2364      C2383   1.292       .  A
O2365      C2382   1.289       .  A
O2366     Zr2374   2.398       .  S
O2366      C2381   1.277       .  A
O2367     Zr2372   2.409       .  S
O2367     Zr2374   2.386       .  S
O2368     Zr2373   2.400       .  S
O2368     Zr2374   2.372       .  S
O2368      H2403   0.966       .  S
O2369     Zr2372   2.403       .  S
O2369     Zr2389   2.371       .  S
O2369      H2406   0.962       .  S
O2370     Zr2373   2.392       .  S
O2370     Zr2389   2.370       .  S
Zr2371     O2396   2.442       .  S
Zr2371     O2390   2.484       .  S
Zr2371     O2398   2.483       .  S
Zr2371     O2386   2.417       .  S
Zr2371     O2377   2.402       .  S
Zr2371     O2378   2.427       .  S
Zr2371     O2379   2.386       .  S
Zr2371     O2380   2.375       .  S
Zr2372     O2391   2.437       .  S
Zr2372     O2384   2.434       .  S
Zr2372     O2385   2.473       .  S
Zr2372     O2378   2.411       .  S
Zr2372     O2379   2.406       .  S
Zr2373     O2375   2.437       .  S
Zr2373     O2397   2.438       .  S
Zr2373     O2399   2.421       .  S
Zr2373     O2377   2.382       .  S
Zr2373     O2380   2.394       .  S
Zr2374     O2400   2.435       .  S
Zr2374     O2401   2.434       .  S
Zr2374     O2376   2.438       .  S
Zr2374     O2377   2.388       .  S
Zr2374     O2378   2.387       .  S
O2375      H2412   0.990       .  S
O2376      H2407   0.990       .  S
O2376      H2421   0.990       .  S
O2378      H2404   0.965       .  S
O2379     Zr2389   2.375       .  S
O2380     Zr2389   2.387       .  S
O2380      H2405   0.965       .  S
C2381      C2427   1.469       .  S
C2382      C2433   1.461       .  S
C2383      C2759   1.493       .  S
O2384      H2420   0.990       .  S
O2385      C2387   1.290       .  A
O2386      C2387   1.282       .  A
O2388      H2417   0.989       .  S
Zr2389     O2392   2.437   1_655  S
Zr2389     O2393   2.434   1_655  S
Zr2389     O2394   2.375   1_655  S
O2390      C2395   1.291       .  A
O2391      H2408   0.990       .  S
O2391      H2423   0.990       .  S
O2393      H2422   0.989       .  S
O2394      C2395   1.271   1_455  A
C2395      C2747   1.465   1_655  S
O2396      H2415   0.990       .  S
O2396      H2419   0.990       .  S
O2397      H2411   0.990       .  S
O2397      H2418   0.990       .  S
O2398      C2402   1.292       .  A
O2399      C2402   1.281       .  A
O2400      H2410   0.990       .  S
O2401      H2414   0.990       .  S
C2402      C2789   1.480       .  S
C2425      C3019   1.462       .  S
C2425      N2426   1.347       .  A
C2425      N2430   1.347       .  A
N2426      C2427   1.352       .  A
C2427      N2428   1.371       .  A
N2428      C2429   1.373       .  A
C2429      N2430   1.355       .  A
C2431      N2432   1.367       .  A
C2431      N2436   1.360   1_655  A
N2432      C2433   1.357       .  A
C2433      N2434   1.349       .  A
C2435      C2827   1.475       .  S
Zr2437     O2438   2.447       .  S
Zr2437     O2439   2.467       .  S
Zr2437     O2440   2.454       .  S
Zr2437     O3469   2.414       .  S
Zr2437     O2445   2.383       .  S
Zr2437     O3472   2.401       .  S
Zr2437     O2447   2.403       .  S
Zr2437     O3474   2.420       .  S
O2438      H2494   0.991       .  S
O2438      H2502   0.989       .  S
O2439      C2459   1.292       .  A
O2440      C2461   1.286       .  A
O2441     Zr2451   2.475       .  S
O2441      C2460   1.281       .  A
O2442     Zr2450   2.444       .  S
O2442      C2461   1.288       .  A
O2443     Zr3463   2.411   1_545  S
O2443      C2460   1.270       .  A
O2444     Zr3478   2.389       .  S
O2444      C2459   1.273       .  A
O2445     Zr2450   2.392       .  S
O2445     Zr3478   2.397       .  S
O2446     Zr3463   2.400   1_545  S
O2446     Zr2451   2.404       .  S
O2446     Zr2452   2.362       .  S
O2446      H2481   0.963       .  S
O2447     Zr2450   2.381       .  S
O2447     Zr2467   2.388       .  S
O2447      H2484   0.965       .  S
O2448     Zr3463   2.415       .  S
O2448     Zr2451   2.403   1_565  S
O2448     Zr3493   2.395       .  S
Zr2449     O2474   2.444       .  S
Zr2449     O2468   2.437       .  S
Zr2449     O2476   2.459       .  S
Zr2449     O3490   2.449   1_545  S
Zr2449     O2455   2.409       .  S
Zr2449     O3482   2.410   1_545  S
Zr2449     O3483   2.389   1_545  S
Zr2449     O2458   2.400       .  S
Zr2450     O2469   2.437       .  S
Zr2450     O2462   2.434       .  S
Zr2450     O2463   2.421       .  S
Zr2450     O2456   2.404       .  S
Zr2450     O2457   2.391       .  S
Zr2451     O2453   2.433       .  S
Zr2451     O2475   2.439       .  S
Zr2451     O2477   2.434       .  S
Zr2451     O2455   2.414       .  S
Zr2451     O2458   2.409       .  S
Zr2452     O2478   2.435       .  S
Zr2452     O2479   2.436       .  S
Zr2452     O3480   2.439   1_545  S
Zr2452     O3470   2.398       .  S
Zr2452     O3471   2.393   1_545  S
Zr2452     O2455   2.392       .  S
Zr2452     O3482   2.374   1_545  S
O2453      H2490   0.990       .  S
O2454     Zr3478   2.438       .  S
O2454      H2485   0.990       .  S
O2454      H2499   0.990       .  S
O2456     Zr3475   2.406       .  S
O2456     Zr3478   2.369       .  S
O2456      H2482   0.964       .  S
O2457     Zr3475   2.383       .  S
O2457     Zr2467   2.383       .  S
O2458     Zr3493   2.383   1_545  S
O2458      H2483   0.966       .  S
C2459      C3683   1.462       .  S
C2461      C2771   1.478       .  S
O2462      H2498   0.990       .  S
O2463      C2465   1.281       .  A
O2464     Zr3475   2.447       .  S
O2464      C2465   1.285       .  A
C2465      C2739   1.454       .  S
O2466     Zr2467   2.440       .  S
O2466      H2495   0.990       .  S
Zr2467     O2470   2.438       .  S
Zr2467     O3497   2.441       .  S
Zr2467     O2472   2.404       .  S
Zr2467     O3474   2.395       .  S
Zr2467     O3484   2.389       .  S
O2468      C2473   1.283       .  A
O2469      H2486   0.990       .  S
O2469      H2501   0.990       .  S
O2470      H2487   0.990       .  S
O2471     Zr3493   2.436   1_545  S
O2471      H3517   0.990       .  S
O2471      H2500   0.990       .  S
O2472      C3499   1.278       .  A
C2473      O3498   1.279   1_545  A
C2473      C3307   1.468       .  S
O2474      H2493   0.990       .  S
O2474      H2497   0.991       .  S
O2475      H2489   0.990       .  S
O2475      H2496   0.990       .  S
O2476      C2480   1.284       .  A
O2477      C2480   1.285       .  A
O2478      H2488   0.990       .  S
O2479      H2492   0.990       .  S
C2480      C2763   1.477       .  S
H2491      O3497   0.989       .  S
Zr2503     O2504   2.439       .  S
Zr2503     O2505   2.415       .  S
Zr2503     O2506   2.490       .  S
Zr2503     O2509   2.448       .  S
Zr2503     O2511   2.380       .  S
Zr2503     O2512   2.390       .  S
Zr2503     O2513   2.396       .  S
Zr2503     O2514   2.407       .  S
O2504      H2560   0.990       .  S
O2504      H2568   0.990       .  S
O2505      C2525   1.283       .  A
O2506      C2527   1.294       .  A
O2507     Zr2517   2.428       .  S
O2507      C2526   1.283       .  A
O2508     Zr2516   2.432       .  S
O2508      C2527   1.285       .  A
O2509      C2526   1.288       .  A
O2510     Zr2518   2.452       .  S
O2510      C2525   1.286       .  A
O2511     Zr2516   2.394       .  S
O2511     Zr2518   2.384       .  S
O2512     Zr2517   2.379       .  S
O2512     Zr2518   2.355       .  S
O2512      H2547   0.965       .  S
O2513     Zr2516   2.397       .  S
O2513     Zr2533   2.373       .  S
O2513      H2550   0.965       .  S
O2514     Zr2517   2.401       .  S
O2514     Zr2533   2.388       .  S
Zr2515     O2540   2.443       .  S
Zr2515     O2534   2.475       .  S
Zr2515     O2542   2.481       .  S
Zr2515     O2530   2.456       .  S
Zr2515     O2521   2.416       .  S
Zr2515     O2522   2.427       .  S
Zr2515     O2523   2.383       .  S
Zr2515     O2524   2.385       .  S
Zr2516     O2535   2.437       .  S
Zr2516     O2528   2.435       .  S
Zr2516     O2529   2.427       .  S
Zr2516     O2522   2.402       .  S
Zr2516     O2523   2.396       .  S
Zr2517     O2519   2.436       .  S
Zr2517     O2541   2.439       .  S
Zr2517     O2543   2.429       .  S
Zr2517     O2521   2.394       .  S
Zr2517     O2524   2.394       .  S
Zr2518     O2544   2.439       .  S
Zr2518     O2520   2.437       .  S
Zr2518     O2521   2.414       .  S
Zr2518     O2522   2.397       .  S
O2519      H2556   0.990       .  S
O2520      H2551   0.990       .  S
O2520      H2565   0.990       .  S
O2522      H2548   0.964       .  S
O2523     Zr2533   2.388       .  S
O2524     Zr2533   2.388       .  S
O2524      H2549   0.966       .  S
C2526      C2663   1.458       .  S
C2527      C2783   1.488       .  S
O2528      H2564   0.990       .  S
O2529      C2531   1.282       .  A
O2530      C2531   1.287       .  A
C2531      C2575   1.461       .  S
O2532     Zr2533   2.439       .  S
O2532      H2561   0.991       .  S
Zr2533     O2536   2.438       .  S
Zr2533     O2537   2.439       .  S
Zr2533     O2538   2.383       .  S
O2534      C2539   1.291       .  A
O2535      H2552   0.990       .  S
O2535      H2567   0.990       .  S
O2536      H2553   0.990       .  S
O2537      H2557   0.990       .  S
O2537      H2566   0.990       .  S
O2538      C2539   1.273       .  A
C2539      C2573   1.470       .  S
O2540      H2559   0.990       .  S
O2540      H2563   0.990       .  S
O2541      H2555   0.990       .  S
O2541      H2562   0.990       .  S
O2542      C2546   1.290       .  A
O2543      C2546   1.284       .  A
O2544      H2554   0.990       .  S
O2545      H2558   0.991       .  S
C2546      C2777   1.488       .  S
C2569      C2795   1.465       .  S
C2569      N2570   1.351       .  A
C2569      N2574   1.355       .  A
N2570      C2571   1.348       .  A
C2571      N2572   1.361       .  A
N2572      C2573   1.369       .  A
C2573      N2574   1.357       .  A
C2575      N2576   1.363       .  A
C2575      N2580   1.358       .  A
N2576      C2577   1.365       .  A
N2578      C2579   1.348       .  A
C2579      C2900   1.469       .  S
Zr2581     O2582   2.436       .  S
Zr2581     O2583   2.438       .  S
Zr2581     O2584   2.447       .  S
Zr2581     O2587   2.411       .  S
Zr2581     O2589   2.378       .  S
Zr2581     O2590   2.397       .  S
Zr2581     O2591   2.398       .  S
Zr2581     O2592   2.407       .  S
O2582      H2638   0.991       .  S
O2582      H2646   0.991       .  S
O2583      C2603   1.286       .  A
O2584      C2605   1.281       .  A
O2585     Zr2595   2.493       .  S
O2585      C2604   1.286       .  A
O2586     Zr2594   2.438       .  S
O2586      C2605   1.286       .  A
O2587      C2604   1.273       .  A
O2588     Zr2596   2.416       .  S
O2588      C2603   1.279       .  A
O2589     Zr2594   2.392       .  S
O2589     Zr2596   2.386       .  S
O2590     Zr2595   2.397       .  S
O2590     Zr2596   2.363       .  S
O2590      H2625   0.965       .  S
O2591     Zr2594   2.390       .  S
O2591     Zr2611   2.390       .  S
O2591      H2628   0.966       .  S
O2592     Zr2595   2.402       .  S
O2592     Zr2611   2.393       .  S
Zr2593     O2618   2.444       .  S
Zr2593     O2612   2.473       .  S
Zr2593     O2620   2.454       .  S
Zr2593     O2608   2.472       .  S
Zr2593     O2599   2.421       .  S
Zr2593     O2600   2.412       .  S
Zr2593     O2601   2.384       .  S
Zr2593     O2602   2.396       .  S
Zr2594     O2613   2.436       .  S
Zr2594     O2606   2.434       .  S
Zr2594     O2607   2.422       .  S
Zr2594     O2600   2.402       .  S
Zr2594     O2601   2.399       .  S
Zr2595     O2597   2.434       .  S
Zr2595     O2619   2.437       .  S
Zr2595     O2621   2.446       .  S
Zr2595     O2599   2.414       .  S
Zr2595     O2602   2.407       .  S
Zr2596     O2622   2.435   1_545  S
Zr2596     O3649   2.437   1_545  S
Zr2596     O2598   2.439       .  S
Zr2596     O2599   2.399       .  S
Zr2596     O2600   2.378       .  S
O2597      H2634   0.990       .  S
O2598      H2629   0.990       .  S
O2598      H2643   0.990       .  S
O2600      H2626   0.964       .  S
O2601     Zr2611   2.387       .  S
O2602     Zr2611   2.386       .  S
O2602      H2627   0.966       .  S
C2603      C2751   1.463       .  S
C2604      C2659   1.488       .  S
C2605      C2787   1.472       .  S
O2606      H2642   0.990       .  S
O2607      C2609   1.282       .  A
O2608      C2609   1.290       .  A
C2609      C2653   1.466       .  S
O2610     Zr2611   2.436       .  S
O2610      H2639   0.990       .  S
Zr2611     O2614   2.435       .  S
Zr2611     O2615   2.442       .  S
Zr2611     O2616   2.401       .  S
O2612      C2617   1.291       .  A
O2613      H2630   0.990       .  S
O2613      H2645   0.990       .  S
O2614      H2631   0.990       .  S
O2615      H2635   0.990       .  S
O2615      H2644   0.990       .  S
O2616      C2617   1.276       .  A
C2617      C2649   1.476       .  S
O2618      H2637   0.990       .  S
O2618      H2641   0.991   1_545  S
O2619      H2633   0.990       .  S
O2619      H2640   0.990       .  S
O2620      C2624   1.284       .  A
O2621      C2624   1.288       .  A
O2622      H2632   0.990       .  S
O2623     Zr3622   2.441       .  S
O2623      H2636   0.990       .  S
C2624      C2757   1.479       .  S
C2647      C3060   1.465       .  S
C2647      N2648   1.358       .  A
C2647      N2652   1.356       .  A
N2648      C2649   1.358       .  A
C2649      N2650   1.367       .  A
N2650      C2651   1.361       .  A
C2651      N2652   1.355       .  A
C2653      N2654   1.362   1_545  A
C2653      N2658   1.362       .  A
N2654      C3681   1.359       .  A
C2655      C2836   1.475       .  S
C2655      N3680   1.357       .  A
C2655      N2656   1.350       .  A
N2656      C3683   1.344       .  A
C2657      C3485   1.461       .  S
C2657      N3682   1.344       .  A
C2657      N2658   1.362   1_565  A
C2659      N2660   1.362       .  A
C2659      N2664   1.373       .  A
N2660      C2661   1.354   1_554  A
C2661      C2868   1.473       .  S
C2661      N2662   1.340       .  A
N2662      C2663   1.346       .  A
C2663      N2664   1.374   1_556  A
Zr2665     O2666   2.432       .  S
Zr2665     O2667   2.417       .  S
Zr2665     O2668   2.456       .  S
Zr2665     O2671   2.416       .  S
Zr2665     O2673   2.378       .  S
Zr2665     O2674   2.397       .  S
Zr2665     O2675   2.396       .  S
Zr2665     O2676   2.408       .  S
O2666      H2722   0.990       .  S
O2666      H2730   0.990       .  S
O2667      C2687   1.282       .  A
O2668      C2689   1.285       .  A
O2669     Zr2679   2.472       .  S
O2669      C2688   1.282       .  A
O2670     Zr2678   2.434       .  S
O2670      C2689   1.283       .  A
O2671      C2688   1.276       .  A
O2672     Zr2680   2.434       .  S
O2672      C2687   1.283       .  A
O2673     Zr2678   2.391       .  S
O2673     Zr2680   2.384       .  S
O2674     Zr2679   2.399       .  S
O2674     Zr2680   2.353       .  S
O2674      H2709   0.964       .  S
O2675     Zr2678   2.392       .  S
O2675     Zr2695   2.385       .  S
O2675      H2712   0.965       .  S
O2676     Zr2679   2.409       .  S
O2676     Zr2695   2.393       .  S
Zr2677     O2702   2.443       .  S
Zr2677     O2696   2.453       .  S
Zr2677     O2704   2.463       .  S
Zr2677     O2692   2.472       .  S
Zr2677     O2683   2.414       .  S
Zr2677     O2684   2.413       .  S
Zr2677     O2685   2.383       .  S
Zr2677     O2686   2.390       .  S
Zr2678     O2697   2.436       .  S
Zr2678     O3716   2.436       .  S
Zr2678     O2691   2.418       .  S
Zr2678     O2684   2.404       .  S
Zr2678     O2685   2.403       .  S
Zr2679     O2681   2.433       .  S
Zr2679     O2703   2.438       .  S
Zr2679     O2705   2.445       .  S
Zr2679     O2683   2.412       .  S
Zr2679     O2686   2.401       .  S
Zr2680     O2706   2.436       .  S
Zr2680     O2707   2.436       .  S
Zr2680     O2682   2.438       .  S
Zr2680     O2683   2.403       .  S
Zr2680     O2684   2.389       .  S
O2681      H2718   0.990       .  S
O2682      H3739   0.990       .  S
O2682      H2727   0.990       .  S
O2684      H2710   0.965       .  S
O2685     Zr2695   2.390       .  S
O2686     Zr2695   2.386       .  S
O2686      H2711   0.966       .  S
C2687      C2741   1.461       .  S
C2688      C2735   1.483       .  S
C2689      C2773   1.475       .  S
O2690     Zr3704   2.436   1_545  S
O2690      H2726   0.990       .  S
O2691      C2693   1.281       .  A
O2692      C2693   1.290       .  A
C2693      C3779   1.469       .  S
O2694      H2723   0.990       .  S
Zr2695     O2698   2.436       .  S
Zr2695     O2699   2.440       .  S
Zr2695     O2700   2.400       .  S
O2696      C2701   1.288       .  A
O2697      H2714   0.990       .  S
O2697      H2729   0.990       .  S
O2699      H2728   0.990       .  S
O2700      C2701   1.275       .  A
C2701      C2745   1.467       .  S
O2702      H2721   0.990       .  S
O2702      H2725   0.991       .  S
O2703      H2717   0.990       .  S
O2703      H2724   0.990       .  S
O2704      C2708   1.288       .  A
O2705      C2708   1.286       .  A
O2706      H2716   0.990       .  S
O2707      H2720   0.990       .  S
C2708      C2779   1.485       .  S
H2713      O3708   0.990       .  S
C2731      N2732   1.344       .  A
C2731      N2736   1.355       .  A
N2732      C2733   1.350       .  A
C2733      N2734   1.371       .  A
N2734      C2735   1.368       .  A
C2735      N2736   1.358       .  A
C2737      C3830   1.486       .  S
C2737      N2738   1.356       .  A
C2737      N2742   1.355       .  A
N2738      C2739   1.356       .  A
C2739      N2740   1.357       .  A
N2740      C2741   1.359       .  A
C2741      N2742   1.355       .  A
C2743      C2987   1.463       .  S
C2743      N2744   1.349       .  A
N2744      C2745   1.353   1_554  A
C2745      N2746   1.367   1_556  A
C2747      N2748   1.359       .  A
C2749      C2964   1.488       .  S
C2749      N2750   1.350       .  A
C2749      N2754   1.361       .  A
N2750      C2751   1.352   1_556  A
C2751      N2752   1.363   1_554  A
N2752      C2753   1.361       .  A
C2753      C3719   1.470   1_545  S
C2753      N2754   1.360       .  A
C2755      N3786   1.365   1_545  A
N2756      C2757   1.349       .  A
C2757      N3784   1.365   1_545  A
N2758      C3783   1.367       .  A
C2759      N2760   1.370       .  A
N2760      C3781   1.368       .  A
C2761      N2762   1.372       .  A
C2761      N2766   1.375       .  A
N2762      C2763   1.364       .  A
C2763      N2764   1.349       .  A
N2764      C2765   1.351       .  A
C2765      N2766   1.372       .  A
C2767      N2768   1.373       .  A
C2767      N2772   1.370       .  A
N2768      C2769   1.368       .  A
C2769      N2770   1.353       .  A
N2770      C2771   1.348       .  A
C2771      N2772   1.363       .  A
C2773      N3804   1.355       .  A
N2774      C2775   1.368       .  A
C2775      N3802   1.371       .  A
N2776      C3801   1.371   1_545  A
C2777      N2778   1.361       .  A
N2778      C3799   1.357   1_545  A
C2779      N2780   1.358       .  A
C2779      N2784   1.358       .  A
N2780      C2781   1.366       .  A
C2781      N2782   1.371       .  A
N2782      C2783   1.372       .  A
C2783      N2784   1.362       .  A
C2785      N2786   1.352       .  A
C2785      N2790   1.364       .  A
N2786      C2787   1.349       .  A
C2787      N2788   1.363       .  A
N2788      C2789   1.368       .  A
C2789      N2790   1.369       .  A
C2791      C2792   1.404       .  A
C2791      C2796   1.403       .  A
C2791      H2801   1.084       .  S
C2792      C2797   1.473       .  S
C2792      C2793   1.416       .  A
C2793      C2794   1.389       .  A
C2793      C2798   1.512       .  S
C2794      C2795   1.398       .  A
C2794      H2799   1.085       .  S
C2795      C2796   1.414       .  A
C2796      C2800   1.506       .  S
C2797      C2802   1.413       .  A
C2797      C2806   1.401       .  A
C2798      H2814   1.109       .  S
C2798      H2815   1.110       .  S
C2798      H2816   1.111       .  S
C2800      H2811   1.111       .  S
C2800      H2812   1.110       .  S
C2800      H2813   1.108       .  S
C2802      C2803   1.395   1_545  A
C2802      C2807   1.513       .  S
C2803      C2804   1.407       .  A
C2803      H3834   1.083       .  S
C2804      C3763   1.487       .  S
C2804      C2805   1.419       .  A
C2805      C2806   1.402   1_565  A
C2805      C2809   1.506       .  S
C2806      H2810   1.083       .  S
C2807      H2817   1.111       .  S
C2807      H2818   1.108       .  S
C2807      H2819   1.111       .  S
H2808      C3829   1.084       .  S
C2809      H2820   1.106       .  S
C2809      H2821   1.111       .  S
C2809      H2822   1.110       .  S
C2823      C2824   1.405       .  A
C2823      C2828   1.406       .  A
C2823      H2833   1.084       .  S
C2824      C2829   1.475       .  S
C2824      C2825   1.415       .  A
C2825      C2826   1.390       .  A
C2825      C2830   1.514       .  S
C2826      C2827   1.399       .  A
C2826      H2831   1.081       .  S
C2827      C2828   1.415       .  A
C2828      C2832   1.505       .  S
C2829      C2834   1.414       .  A
C2829      C2838   1.405       .  A
C2830      H2846   1.108       .  S
C2830      H2847   1.110       .  S
C2830      H2848   1.107       .  S
C2832      H2843   1.111       .  S
C2832      H2844   1.110       .  S
C2832      H2845   1.108       .  S
C2834      C2835   1.388       .  A
C2834      C2839   1.512       .  S
C2835      C2836   1.403       .  A
C2835      H2840   1.084       .  S
C2836      C2837   1.415       .  A
C2837      C2838   1.404       .  A
C2837      C2841   1.505       .  S
C2838      H2842   1.083       .  S
C2839      H2849   1.111       .  S
C2839      H2850   1.109       .  S
C2839      H2851   1.110       .  S
C2841      H2852   1.106       .  S
C2841      H3879   1.110       .  S
C2841      H2854   1.110       .  S
H2853      C3867   1.110       .  S
C2855      C2856   1.398       .  A
C2855      C2860   1.399       .  A
C2855      H2865   1.085       .  S
C2856      C2861   1.477       .  S
C2856      C2857   1.405       .  A
C2857      C2858   1.404       .  A
C2857      C2862   1.506       .  S
C2858      C2859   1.411       .  A
C2858      H2863   1.083       .  S
C2859      C2860   1.421       .  A
C2860      C2864   1.507       .  S
C2861      C2866   1.419       .  A
C2861      C2870   1.402       .  A
C2862      H2878   1.110       .  S
C2862      H2879   1.109       .  S
C2862      H2880   1.111       .  S
C2864      H2875   1.110       .  S
C2864      H2876   1.110       .  S
C2864      H2877   1.110       .  S
C2866      C2867   1.394       .  A
C2866      C2871   1.512   1_556  S
C2867      C2868   1.396       .  A
C2867      H2872   1.081   1_556  S
C2868      C2869   1.418       .  A
C2869      C2870   1.405       .  A
C2869      C2873   1.508       .  S
C2870      H2874   1.084       .  S
C2871      H2881   1.111       .  S
C2871      H2882   1.110   1_554  S
C2871      H2883   1.106       .  S
C2873      H2884   1.111       .  S
C2873      H2885   1.109       .  S
C2873      H2886   1.109       .  S
C2887      C2888   1.406       .  A
C2887      C2892   1.405       .  A
C2887      H2897   1.084       .  S
C2888      C2893   1.481       .  S
C2888      C2889   1.412       .  A
C2889      C2890   1.397       .  A
C2889      C2894   1.506       .  S
C2890      C2891   1.407       .  A
C2890      H2895   1.083       .  S
C2891      C2892   1.413       .  A
C2892      C2896   1.503       .  S
C2893      C2898   1.418       .  A
C2893      C2902   1.409       .  A
C2894      H2910   1.105       .  S
C2894      H2911   1.110       .  S
C2894      H2912   1.110       .  S
C2896      H2907   1.110       .  S
C2896      H2908   1.110       .  S
C2896      H2909   1.110       .  S
C2898      C2899   1.385       .  A
C2898      C2903   1.513       .  S
C2899      C2900   1.398       .  A
C2899      H2904   1.085       .  S
C2900      C2901   1.413       .  A
C2901      C2902   1.409       .  A
C2901      C2905   1.505       .  S
C2902      H2906   1.084       .  S
C2903      H2913   1.111       .  S
C2903      H2914   1.108       .  S
C2903      H2915   1.109       .  S
C2905      H2916   1.110       .  S
C2905      H2917   1.108       .  S
C2905      H2918   1.111       .  S
C2919      C2920   1.397       .  A
C2919      C2924   1.396       .  A
C2919      H2929   1.085       .  S
C2920      C2925   1.477       .  S
C2920      C2921   1.408       .  A
C2921      C2922   1.403       .  A
C2921      C2926   1.502       .  S
C2922      C2923   1.407       .  A
C2922      H2927   1.084       .  S
C2923      C2924   1.420       .  A
C2924      C2928   1.503       .  S
C2925      C2930   1.418       .  A
C2925      C2934   1.404       .  A
C2926      H2942   1.109       .  S
C2926      H2943   1.109       .  S
C2926      H2944   1.111       .  S
C2928      H2939   1.111       .  S
C2928      H2940   1.109       .  S
C2928      H2941   1.111       .  S
C2930      C2931   1.390       .  A
C2930      C2935   1.514       .  S
C2931      C2932   1.396   1_655  A
C2931      H2936   1.081       .  S
C2932      C2933   1.417       .  A
C2933      C2934   1.407   1_455  A
C2933      C2937   1.507       .  S
C2934      H2938   1.084       .  S
C2935      H2945   1.111       .  S
C2935      H2946   1.110       .  S
C2935      H2947   1.107       .  S
C2937      H2948   1.109       .  S
C2951      C3978   1.411       .  A
C2951      C2956   1.398       .  A
C2951      H2961   1.084       .  S
C2952      C2957   1.493       .  S
C2952      C3977   1.410       .  A
C2952      C2953   1.414       .  A
C2953      C2954   1.405       .  A
C2953      C2958   1.507       .  S
C2954      C2955   1.407       .  A
C2954      H2959   1.084       .  S
C2955      C3982   1.412       .  A
C2956      C3981   1.410       .  A
C2956      C2960   1.510       .  S
C2957      C2962   1.410       .  A
C2957      C2966   1.402       .  A
C2958      H2974   1.110       .  S
C2958      H2975   1.110       .  S
C2958      H2976   1.111       .  S
C2960      H2971   1.108       .  S
C2960      H2972   1.111       .  S
C2960      H2973   1.111       .  S
C2962      C2963   1.402       .  A
C2962      C2967   1.500       .  S
C2963      C2964   1.406       .  A
C2963      H2968   1.084       .  S
C2964      C2965   1.424       .  A
C2965      C2966   1.402       .  A
C2965      C2969   1.508       .  S
C2966      H2970   1.083       .  S
C2967      H2977   1.111       .  S
C2967      H4004   1.107       .  S
C2967      H2979   1.110       .  S
C2969      H2980   1.111       .  S
C2969      H2981   1.109   1_556  S
C2969      H2982   1.107       .  S
H2978      C3993   1.106       .  S
C2983      C2984   1.406       .  A
C2983      C2988   1.404       .  A
C2983      H2993   1.084       .  S
C2984      C2989   1.483       .  S
C2984      C2985   1.426       .  A
C2985      C2986   1.395       .  A
C2985      C2990   1.513       .  S
C2986      C2987   1.393       .  A
C2986      H2991   1.085   1_554  S
C2987      C2988   1.408       .  A
C2988      C2992   1.504       .  S
C2989      C2994   1.406       .  A
C2990      H3006   1.108       .  S
C2990      H3007   1.106       .  S
C2990      H3008   1.111   1_554  S
C2992      H3003   1.110       .  S
C2992      H3005   1.107       .  S
C2994      C2995   1.404       .  A
C2994      C2999   1.505       .  S
C2995      C2996   1.409       .  A
C2995      H3000   1.084       .  S
C2996      C2997   1.419       .  A
C2998      H3002   1.085       .  S
C2999      H3009   1.111       .  S
C2999      H3010   1.110       .  S
C2999      H3011   1.108       .  S
C3001      H3012   1.111       .  S
C3001      H3013   1.111       .  S
C3001      H3014   1.110       .  S
C3015      C3016   1.403       .  A
C3015      C3020   1.388       .  A
C3015      H3025   1.085       .  S
C3016      C3021   1.471       .  S
C3016      C3017   1.408       .  A
C3017      C3018   1.406       .  A
C3017      C3022   1.505       .  S
C3018      C3019   1.407       .  A
C3018      H3023   1.084       .  S
C3019      C3020   1.410       .  A
C3020      C3024   1.511       .  S
C3021      C3026   1.410       .  A
C3021      C3030   1.401       .  A
C3022      H3038   1.110       .  S
C3022      H3039   1.104       .  S
C3022      H3040   1.110       .  S
C3024      H3035   1.111       .  S
C3024      H3036   1.111       .  S
C3024      H3037   1.110       .  S
C3026      C3027   1.395       .  A
C3026      C3031   1.508       .  S
C3027      C3028   1.403       .  A
C3027      H4058   1.075       .  S
C3028      C3151   1.488       .  S
C3028      C3029   1.425       .  A
C3029      C3030   1.403       .  A
C3029      C3033   1.510       .  S
C3030      H3034   1.084       .  S
C3031      H3041   1.109       .  S
C3031      H3042   1.109       .  S
C3031      H3043   1.107       .  S
H3032      C4053   1.076       .  S
C3033      H3044   1.109       .  S
C3033      H3045   1.110       .  S
C3033      H3046   1.110       .  S
C3047      C3048   1.403       .  A
C3047      H3057   1.084       .  S
C3048      C3053   1.478       .  S
C3048      C3049   1.412       .  A
C3049      C3050   1.403       .  A
C3049      C3054   1.506       .  S
C3050      H3055   1.084       .  S
C3051      C3052   1.413       .  A
C3052      C3056   1.504       .  S
C3053      C3058   1.408       .  A
C3053      C3062   1.404       .  A
C3054      H3070   1.110       .  S
C3054      H3071   1.109       .  S
C3054      H3072   1.111       .  S
C3056      H3067   1.110       .  S
C3056      H3068   1.109       .  S
C3056      H3069   1.111       .  S
C3058      C3059   1.409       .  A
C3058      C3063   1.503       .  S
C3059      C3060   1.406       .  A
C3059      H3064   1.084       .  S
C3060      C3061   1.410       .  A
C3061      C3062   1.393       .  A
C3061      C3065   1.510       .  S
C3062      H3066   1.086       .  S
C3063      H3073   1.109       .  S
C3063      H3074   1.110       .  S
C3063      H3075   1.108       .  S
C3065      H3076   1.110       .  S
C3065      H3077   1.108       .  S
C3065      H3078   1.111       .  S
Zr3079     O3080   2.441       .  S
Zr3079     O3081   2.424       .  S
Zr3079     O3082   2.480       .  S
Zr3079     O3085   2.439       .  S
Zr3079     O3087   2.385       .  S
Zr3079     O3088   2.386       .  S
Zr3079     O3089   2.399       .  S
Zr3079     O3090   2.410       .  S
O3080      H3136   0.988       .  S
O3080      H3144   0.990       .  S
O3081      C3101   1.283       .  A
O3082      C3103   1.289       .  A
O3083     Zr3093   2.415       .  S
O3083      C3102   1.282       .  A
O3084     Zr3092   2.406       .  S
O3084      C3103   1.281       .  A
O3085      C3102   1.285       .  A
O3086     Zr3094   2.442       .  S
O3086      C3101   1.284       .  A
O3087     Zr3092   2.394       .  S
O3087     Zr3094   2.392       .  S
O3088     Zr3093   2.369       .  S
O3088     Zr3094   2.364       .  S
O3088      H3123   0.965       .  S
O3089     Zr3092   2.392       .  S
O3089     Zr3109   2.363       .  S
O3089      H3126   0.963       .  S
O3090     Zr3093   2.393       .  S
O3090     Zr3109   2.390       .  S
Zr3091     O3116   2.442       .  S
Zr3091     O3110   2.467       .  S
Zr3091     O3118   2.466       .  S
Zr3091     O3106   2.452       .  S
Zr3091     O3097   2.415       .  S
Zr3091     O3098   2.421       .  S
Zr3091     O3099   2.383       .  S
Zr3091     O3100   2.388       .  S
Zr3092     O3111   2.437       .  S
Zr3092     O3105   2.412       .  S
Zr3092     O3098   2.393       .  S
Zr3092     O3099   2.391       .  S
Zr3093     O3095   2.436       .  S
Zr3093     O3117   2.438       .  S
Zr3093     O3119   2.408       .  S
Zr3093     O3097   2.393       .  S
Zr3093     O3100   2.388       .  S
Zr3094     O3120   2.438       .  S
Zr3094     O3121   2.442       .  S
Zr3094     O3096   2.439   1_655  S
Zr3094     O3097   2.407       .  S
Zr3094     O3098   2.396       .  S
O3095      H3132   0.990       .  S
O3096      H3127   0.990       .  S
O3096      H3141   0.990       .  S
O3098      H3124   0.965       .  S
O3099     Zr3109   2.388       .  S
O3100     Zr3109   2.380       .  S
O3100      H3125   0.965       .  S
C3101      C3149   1.471       .  S
C3102      C3153   1.451       .  S
C3103      C3781   1.470       .  S
O3104      H3140   0.990       .  S
O3105      C3107   1.280       .  A
O3106      C3107   1.286       .  A
O3108      H3137   0.990       .  S
Zr3109     O3112   2.436       .  S
Zr3109     O3113   2.440       .  S
Zr3109     O3114   2.378       .  S
O3110      C3115   1.290       .  A
O3111      H3128   0.990       .  S
O3111      H3143   0.990   1_655  S
O3112      H3129   0.989       .  S
O3113      H3142   0.990       .  S
O3114      C3115   1.272       .  A
C3115      C3165   1.465       .  S
O3116      H3135   0.990       .  S
O3116      H3139   0.991       .  S
O3117      H3131   0.990       .  S
O3117      H3138   0.990       .  S
O3118      C3122   1.286       .  A
O3119      C3122   1.279       .  A
O3120      H3130   0.990       .  S
O3121      H3134   0.990       .  S
C3122      C3811   1.472       .  S
C3145      C4077   1.485       .  S
C3145      N3146   1.355       .  A
C3145      N3150   1.354       .  A
N3146      C3147   1.360       .  A
C3147      C3347   1.462       .  S
C3147      N3148   1.363       .  A
N3148      C3149   1.363       .  A
C3149      N3150   1.355       .  A
C3151      N3152   1.341       .  A
C3151      N3156   1.356       .  A
N3152      C3153   1.346       .  A
C3153      N3154   1.366       .  A
N3154      C3155   1.366       .  A
C3155      C3486   1.473       .  S
C3155      N3156   1.361       .  A
C3157      C4022   1.485       .  S
C3157      N3158   1.350       .  A
C3157      N3162   1.354       .  A
N3158      C3159   1.355       .  A
C3159      N3160   1.362       .  A
N3160      C3161   1.364       .  A
C3161      C3551   1.468   1_554  S
C3161      N3162   1.358       .  A
C3163      C3981   1.472       .  S
C3163      N3164   1.355       .  A
C3163      N3168   1.357       .  A
N3164      C3165   1.353   1_556  A
C3165      N3166   1.365   1_554  A
N3166      C3167   1.359       .  A
C3167      N3168   1.356       .  A
Zr3169     O3170   2.441       .  S
Zr3169     O3171   2.453       .  S
Zr3169     O3172   2.507       .  S
Zr3169     O3175   2.462       .  S
Zr3169     O3177   2.382       .  S
Zr3169     O3178   2.403       .  S
Zr3169     O3179   2.415       .  S
Zr3169     O3180   2.409       .  S
O3170      H3226   0.990       .  S
O3170      H3234   0.991       .  S
O3171      C3191   1.289       .  A
O3172      C3193   1.296       .  A
O3173     Zr3183   2.420       .  S
O3173      C3192   1.281       .  A
O3174     Zr3182   2.442       .  S
O3174      C3193   1.285       .  A
O3175      C3192   1.290       .  A
O3176     Zr3184   2.421       .  S
O3176      C3191   1.278       .  A
O3177     Zr3182   2.387       .  S
O3177     Zr3184   2.393       .  S
O3178     Zr3183   2.395       .  S
O3178     Zr3184   2.380       .  S
O3178      H3213   0.968       .  S
O3179     Zr3182   2.392       .  S
O3179     Zr3199   2.377       .  S
O3179      H3216   0.963       .  S
O3180     Zr3183   2.399       .  S
O3180     Zr3199   2.378       .  S
Zr3181     O3206   2.440       .  S
Zr3181     O3200   2.457       .  S
Zr3181     O3208   2.490       .  S
Zr3181     O3196   2.459       .  S
Zr3181     O3187   2.411       .  S
Zr3181     O3188   2.429       .  S
Zr3181     O3189   2.399       .  S
Zr3181     O3190   2.412       .  S
Zr3182     O3201   2.436       .  S
Zr3182     O3194   2.435       .  S
Zr3182     O3195   2.410       .  S
Zr3182     O3188   2.406       .  S
Zr3182     O3189   2.383       .  S
Zr3183     O3185   2.437       .  S
Zr3183     O3207   2.437       .  S
Zr3183     O3209   2.433       .  S
Zr3183     O3187   2.388       .  S
Zr3183     O3190   2.400       .  S
Zr3184     O3210   2.437       .  S
Zr3184     O3211   2.438       .  S
Zr3184     O3186   2.437       .  S
Zr3184     O3187   2.394       .  S
Zr3184     O3188   2.401       .  S
O3185      H3222   0.990       .  S
O3186      H3217   0.990       .  S
O3186      H3231   0.990       .  S
O3188      H3214   0.972       .  S
O3189     Zr3199   2.382       .  S
O3190     Zr3199   2.394       .  S
O3190      H3215   0.967       .  S
C3191      C3455   1.473       .  S
C3192      C3677   1.464       .  S
C3193      C3793   1.495       .  S
O3194      H3230   0.990       .  S
O3195      C3197   1.280       .  A
O3196      C3197   1.288       .  A
C3197      C3305   1.458       .  S
O3198     Zr3199   2.440       .  S
O3198      H3227   0.990       .  S
Zr3199     O3202   2.441       .  S
Zr3199     O3203   2.438       .  S
Zr3199     O3204   2.411       .  S
O3200      C3205   1.279       .  A
O3201      H3218   0.990       .  S
O3201      H3233   0.990       .  S
O3202      H3219   0.990       .  S
O3203      H3223   0.989       .  S
O3203      H3232   0.990       .  S
O3204      C3205   1.266       .  A
C3205      C3597   1.457       .  S
O3206      H3225   0.990       .  S
O3206      H3229   0.990       .  S
O3207      H3221   0.990       .  S
O3207      H3228   0.990       .  S
O3208      C3212   1.293       .  A
O3209      C3212   1.284       .  A
O3210      H3220   0.990       .  S
O3211      H3224   0.990       .  S
C3212      C3787   1.491       .  S
Zr3235     O3236   2.442       .  S
Zr3235     O3237   2.430       .  S
Zr3235     O3238   2.492       .  S
Zr3235     O3241   2.465       .  S
Zr3235     O3243   2.387       .  S
Zr3235     O3244   2.396       .  S
Zr3235     O3245   2.414       .  S
Zr3235     O3246   2.404       .  S
O3236      H3292   0.990       .  S
O3236      H3300   0.990   1_565  S
O3237      C3257   1.283       .  A
O3238      C3259   1.293       .  A
O3239     Zr3249   2.384       .  S
O3239      C3258   1.275       .  A
O3240     Zr3248   2.430       .  S
O3240      C3259   1.284       .  A
O3241      C3258   1.290       .  A
O3242     Zr3250   2.448       .  S
O3242      C3257   1.284       .  A
O3243     Zr3248   2.396       .  S
O3243     Zr3250   2.385       .  S
O3244     Zr3249   2.387       .  S
O3244     Zr3250   2.370       .  S
O3244      H3279   0.966       .  S
O3245     Zr3248   2.394       .  S
O3245     Zr3265   2.381       .  S
O3245      H3282   0.962       .  S
O3246     Zr3249   2.409       .  S
O3246     Zr3265   2.377       .  S
Zr3247     O3272   2.442       .  S
Zr3247     O3266   2.466       .  S
Zr3247     O3274   2.475       .  S
Zr3247     O3262   2.466       .  S
Zr3247     O3253   2.415       .  S
Zr3247     O3254   2.433       .  S
Zr3247     O3255   2.401       .  S
Zr3247     O3256   2.409       .  S
Zr3248     O3267   2.439       .  S
Zr3248     O3260   2.437       .  S
Zr3248     O3261   2.416       .  S
Zr3248     O3254   2.405       .  S
Zr3248     O3255   2.388       .  S
Zr3249     O3251   2.438       .  S
Zr3249     O3273   2.439       .  S
Zr3249     O3275   2.429       .  S
Zr3249     O3253   2.378       .  S
Zr3249     O3256   2.384       .  S
Zr3250     O3276   2.438       .  S
Zr3250     O3277   2.433       .  S
Zr3250     O3252   2.437       .  S
Zr3250     O3253   2.405       .  S
Zr3250     O3254   2.414       .  S
O3251      H3288   0.990       .  S
O3252      H3283   0.990       .  S
O3252      H3297   0.990       .  S
O3254      H3280   0.965       .  S
O3255     Zr3265   2.389       .  S
O3256     Zr3265   2.398       .  S
O3256      H3281   0.966       .  S
C3257      C3303   1.478       .  S
C3258      C3309   1.448       .  S
C3259      C3801   1.484       .  S
O3260      H3296   0.990       .  S
O3261      C3263   1.279       .  A
O3262      C3263   1.289       .  A
C3263      C3313   1.462       .  S
O3264      H3293   0.990       .  S
Zr3265     O3268   2.442   1_565  S
Zr3265     O3269   2.437   1_565  S
Zr3265     O3270   2.390       .  S
O3266      C3271   1.278       .  A
O3267      H3284   0.990       .  S
O3267      H3299   0.990       .  S
O3269      H3298   0.990       .  S
O3270      C3271   1.263       .  A
O3272      H3291   0.991       .  S
O3272      H3295   0.990       .  S
O3273      H3287   0.990       .  S
O3273      H3294   0.990       .  S
O3274      C3278   1.290       .  A
O3275      C3278   1.284       .  A
O3276      H3286   0.990       .  S
O3277      H3290   0.990       .  S
C3278      C3807   1.487       .  S
C3301      C3949   1.486       .  S
C3301      N3302   1.356       .  A
C3301      N3306   1.346       .  A
N3302      C3303   1.363       .  A
C3303      N3304   1.370       .  A
N3304      C3305   1.365       .  A
C3305      N3306   1.348       .  A
C3307      N3308   1.362   1_545  A
N3308      C3309   1.354       .  A
C3309      N3310   1.349   1_565  A
C3311      C3917   1.483       .  S
C3311      N3312   1.359       .  A
C3313      N3314   1.352       .  A
C3313      N3318   1.374       .  A
N3314      C3315   1.344       .  A
C3315      C3885   1.483       .  S
C3315      N3316   1.349       .  A
N3316      C3317   1.361   1_556  A
C3317      C3413   1.488       .  S
C3317      N3318   1.373   1_554  A
Zr3319     O3320   2.443       .  S
Zr3319     O3321   2.428       .  S
Zr3319     O3322   2.477       .  S
Zr3319     O3327   2.382       .  S
Zr3319     O3329   2.399       .  S
O3320      H3376   0.990       .  S
O3320      H3384   0.990       .  S
O3321      C3341   1.285       .  A
O3322      C3343   1.288       .  A
O3323     Zr3333   2.446       .  S
O3323      C3342   1.286       .  A
O3324     Zr3332   2.424       .  S
O3324      C3343   1.283       .  A
O3325      C3342   1.280       .  A
O3326     Zr3334   2.429       .  S
O3327     Zr3332   2.394       .  S
O3328     Zr3333   2.378       .  S
O3328     Zr3334   2.368       .  S
O3328      H3363   0.965       .  S
O3329     Zr3332   2.395       .  S
O3329     Zr3349   2.382       .  S
O3329      H3366   0.965       .  S
O3330     Zr3333   2.391       .  S
Zr3331     O3356   2.444       .  S
Zr3331     O3350   2.472       .  S
Zr3331     O3358   2.474       .  S
Zr3331     O3337   2.420       .  S
Zr3331     O3340   2.395       .  S
Zr3332     O3351   2.435       .  S
Zr3332     O3344   2.441       .  S
Zr3332     O3345   2.420       .  S
Zr3332     O3338   2.398       .  S
Zr3332     O3339   2.394       .  S
Zr3333     O3335   2.435       .  S
Zr3333     O3357   2.438       .  S
Zr3333     O3359   2.420       .  S
Zr3333     O3337   2.400       .  S
Zr3333     O3340   2.399       .  S
Zr3334     O3360   2.434       .  S
Zr3334     O3361   2.437       .  S
Zr3334     O3337   2.403       .  S
O3335      H3372   0.990       .  S
O3336      H3367   0.990       .  S
O3336      H3381   0.990       .  S
O3338      H3364   0.964       .  S
O3339     Zr3349   2.385       .  S
O3340      H3365   0.966       .  S
C3342      C3759   1.456       .  S
C3343      C3791   1.476       .  S
O3344      H3380   0.990       .  S
O3345      C3347   1.282       .  A
O3346      C3347   1.287       .  A
O3348     Zr3349   2.438       .  S
O3348      H3377   0.990       .  S
Zr3349     O3352   2.436       .  S
Zr3349     O3354   2.397       .  S
O3350      C3355   1.291       .  A
O3351      H3368   0.990       .  S
O3351      H3383   0.990       .  S
O3352      H3369   0.990       .  S
O3353      H3382   0.990       .  S
O3356      H3375   0.990       .  S
O3356      H3379   0.991       .  S
O3357      H3371   0.990       .  S
O3357      H3378   0.990       .  S
O3358      C3362   1.287       .  A
O3359      C3362   1.284       .  A
O3360      H3370   0.990       .  S
O3361      H3374   0.990       .  S
C3362      C3795   1.479       .  S
Zr3385     O3386   2.439       .  S
Zr3385     O3387   2.481       .  S
Zr3385     O3388   2.508       .  S
Zr3385     O3391   2.478       .  S
Zr3385     O3393   2.401       .  S
Zr3385     O3394   2.407       .  S
Zr3385     O3395   2.429       .  S
Zr3385     O3396   2.415       .  S
O3386      H3442   0.990       .  S
O3386      H3450   0.990       .  S
O3387      C3407   1.291       .  A
O3388      C3409   1.298       .  A
O3389     Zr3399   2.424       .  S
O3389      C3408   1.271       .  A
O3390     Zr3398   2.467       .  S
O3390      C3409   1.291       .  A
O3391      C3408   1.290       .  A
O3392     Zr3400   2.400       .  S
O3392      C3407   1.277       .  A
O3393     Zr3398   2.409       .  S
O3393     Zr3400   2.389       .  S
O3394     Zr3399   2.402       .  S
O3394     Zr3400   2.374       .  S
O3394      H3429   0.965       .  S
O3395     Zr3398   2.407       .  S
O3395     Zr3415   2.366       .  S
O3395      H3432   0.962       .  S
O3396     Zr3399   2.392       .  S
O3396     Zr3415   2.372       .  S
Zr3397     O3422   2.442       .  S
Zr3397     O3416   2.486       .  S
Zr3397     O3424   2.500       .  S
Zr3397     O3412   2.423       .  S
Zr3397     O3403   2.396       .  S
Zr3397     O3404   2.430       .  S
Zr3397     O3405   2.390       .  S
Zr3397     O3406   2.383       .  S
Zr3398     O3417   2.437       .  S
Zr3398     O3410   2.435       .  S
Zr3398     O3411   2.480       .  S
Zr3398     O3404   2.411       .  S
Zr3398     O3405   2.404       .  S
Zr3399     O3401   2.435       .  S
Zr3399     O3423   2.438       .  S
Zr3399     O3425   2.427       .  S
Zr3399     O3403   2.376       .  S
Zr3399     O3406   2.397       .  S
Zr3400     O3426   2.436       .  S
Zr3400     O3427   2.437       .  S
Zr3400     O3402   2.438       .  S
Zr3400     O3403   2.378       .  S
Zr3400     O3404   2.391       .  S
O3401      H3438   0.990       .  S
O3402      H3433   0.990       .  S
O3402      H3447   0.990       .  S
O3404      H3430   0.965       .  S
O3405     Zr3415   2.380       .  S
O3406     Zr3415   2.390       .  S
O3406      H3431   0.965       .  S
C3407      C3453   1.468       .  S
C3408      C3459   1.468       .  S
C3409      C3785   1.496       .  S
O3410      H3446   0.990       .  S
O3411      C3413   1.291       .  A
O3412      C3413   1.283       .  A
O3414      H3443   0.990       .  S
Zr3415     O3418   2.438   1_655  S
Zr3415     O3419   2.435   1_655  S
Zr3415     O3420   2.371   1_655  S
O3416      C3421   1.292       .  A
O3417      H3434   0.990       .  S
O3417      H3449   0.990       .  S
O3419      H3448   0.989       .  S
O3420      C3421   1.270   1_455  A
C3421      C3773   1.464   1_655  S
O3422      H3441   0.991       .  S
O3422      H3445   0.990       .  S
O3423      H3437   0.990       .  S
O3423      H3444   0.990       .  S
O3424      C3428   1.296       .  A
O3425      C3428   1.282       .  A
O3426      H3436   0.990       .  S
O3427      H3440   0.991       .  S
C3428      C3815   1.486       .  S
C3451      C4045   1.458       .  S
C3451      N3452   1.346       .  A
C3451      N3456   1.347       .  A
N3452      C3453   1.351       .  A
C3453      N3454   1.371       .  A
N3454      C3455   1.374       .  A
C3455      N3456   1.354       .  A
C3457      N3458   1.370       .  A
C3457      N3462   1.361   1_655  A
N3458      C3459   1.360       .  A
C3459      N3460   1.349       .  A
C3461      C3853   1.472       .  S
Zr3463     O3464   2.447       .  S
Zr3463     O3465   2.461       .  S
Zr3463     O3466   2.446       .  S
Zr3463     O3471   2.383       .  S
Zr3463     O3473   2.402       .  S
O3464      H3520   0.991       .  S
O3464      H3528   0.989       .  S
O3465      C3485   1.292       .  A
O3466      C3487   1.284       .  A
O3467     Zr3477   2.467       .  S
O3467      C3486   1.279       .  A
O3468     Zr3476   2.446       .  S
O3468      C3487   1.288       .  A
O3469      C3486   1.270       .  A
O3470      C3485   1.275   1_545  A
O3471     Zr3476   2.385       .  S
O3472     Zr3477   2.407       .  S
O3472     Zr3478   2.361       .  S
O3472      H3507   0.964       .  S
O3473     Zr3476   2.384       .  S
O3473     Zr3493   2.388       .  S
O3473      H3510   0.965       .  S
O3474     Zr3477   2.397       .  S
Zr3475     O3500   2.444       .  S
Zr3475     O3494   2.437       .  S
Zr3475     O3502   2.451       .  S
Zr3475     O3481   2.405       .  S
Zr3475     O3484   2.402       .  S
Zr3476     O3495   2.436       .  S
Zr3476     O3488   2.435       .  S
Zr3476     O3489   2.422       .  S
Zr3476     O3482   2.403       .  S
Zr3476     O3483   2.400       .  S
Zr3477     O3479   2.434       .  S
Zr3477     O3501   2.439       .  S
Zr3477     O3503   2.429       .  S
Zr3477     O3481   2.413       .  S
Zr3477     O3484   2.407       .  S
Zr3478     O3504   2.436       .  S
Zr3478     O3505   2.438       .  S
Zr3478     O3481   2.387       .  S
O3479      H3516   0.990       .  S
O3480      H3511   0.990       .  S
O3480      H3525   0.990       .  S
O3482      H3508   0.965       .  S
O3483     Zr3493   2.385       .  S
O3484      H3509   0.966       .  S
C3487      C3797   1.475       .  S
O3488      H3524   0.990       .  S
O3489      C3491   1.281       .  A
O3490      C3491   1.286       .  A
C3491      C3765   1.457       .  S
O3492     Zr3493   2.438       .  S
O3492      H3521   0.990       .  S
Zr3493     O3496   2.435       .  S
Zr3493     O3498   2.410       .  S
O3494      C3499   1.284       .  A
O3495      H3512   0.990       .  S
O3495      H3527   0.990       .  S
O3496      H3513   0.990       .  S
O3497      H3526   0.990       .  S
O3500      H3519   0.990       .  S
O3500      H3523   0.991       .  S
O3501      H3515   0.990       .  S
O3501      H3522   0.990       .  S
O3502      C3506   1.283       .  A
O3503      C3506   1.284       .  A
O3504      H3514   0.990       .  S
O3505      H3518   0.990       .  S
C3506      C3789   1.470       .  S
Zr3529     O3530   2.441       .  S
Zr3529     O3531   2.417       .  S
Zr3529     O3532   2.496       .  S
Zr3529     O3535   2.449       .  S
Zr3529     O3537   2.385       .  S
Zr3529     O3538   2.391       .  S
Zr3529     O3539   2.401       .  S
Zr3529     O3540   2.411       .  S
O3530      H3586   0.990       .  S
O3530      H3594   0.990       .  S
O3531      C3551   1.283       .  A
O3532      C3553   1.294       .  A
O3533     Zr3543   2.425       .  S
O3533      C3552   1.282       .  A
O3534     Zr3542   2.422       .  S
O3534      C3553   1.283       .  A
O3535      C3552   1.287       .  A
O3536     Zr3544   2.438       .  S
O3536      C3551   1.284       .  A
O3537     Zr3542   2.395       .  S
O3537     Zr3544   2.386       .  S
O3538     Zr3543   2.379       .  S
O3538     Zr3544   2.361       .  S
O3538      H3573   0.965       .  S
O3539     Zr3542   2.392       .  S
O3539     Zr3559   2.368       .  S
O3539      H3576   0.964       .  S
O3540     Zr3543   2.396       .  S
O3540     Zr3559   2.393       .  S
Zr3541     O3566   2.443       .  S
Zr3541     O3560   2.476       .  S
Zr3541     O3568   2.494       .  S
Zr3541     O3556   2.478       .  S
Zr3541     O3547   2.413       .  S
Zr3541     O3548   2.424       .  S
Zr3541     O3549   2.388       .  S
Zr3541     O3550   2.392       .  S
Zr3542     O3561   2.437       .  S
Zr3542     O3554   2.437       .  S
Zr3542     O3555   2.407       .  S
Zr3542     O3548   2.401       .  S
Zr3542     O3549   2.394       .  S
Zr3543     O3545   2.435       .  S
Zr3543     O3567   2.439       .  S
Zr3543     O3569   2.410       .  S
Zr3543     O3547   2.394       .  S
Zr3543     O3550   2.391       .  S
Zr3544     O3570   2.437       .  S
Zr3544     O3546   2.440       .  S
Zr3544     O3547   2.409       .  S
Zr3544     O3548   2.390       .  S
O3545      H3582   0.990       .  S
O3546      H3577   0.990       .  S
O3546      H3591   0.990       .  S
O3548      H3574   0.964       .  S
O3549     Zr3559   2.390       .  S
O3550     Zr3559   2.390       .  S
O3550      H3575   0.966       .  S
C3552      C3689   1.458       .  S
C3553      C3809   1.485       .  S
O3554      H3590   0.990       .  S
O3555      C3557   1.279       .  A
O3556      C3557   1.292       .  A
C3557      C3601   1.466       .  S
O3558     Zr3559   2.436       .  S
O3558      H3587   0.990       .  S
Zr3559     O3562   2.437       .  S
Zr3559     O3563   2.437       .  S
Zr3559     O3564   2.386       .  S
O3560      C3565   1.292       .  A
O3561      H3578   0.990       .  S
O3561      H3593   0.990       .  S
O3562      H3579   0.990       .  S
O3563      H3583   0.990       .  S
O3563      H3592   0.990       .  S
O3564      C3565   1.273       .  A
C3565      C3599   1.471       .  S
O3566      H3585   0.991       .  S
O3566      H3589   0.990       .  S
O3567      H3581   0.990       .  S
O3567      H3588   0.990       .  S
O3568      C3572   1.292       .  A
O3569      C3572   1.280       .  A
O3570      H3580   0.990       .  S
O3571      H3584   0.990       .  S
C3572      C3803   1.486       .  S
C3595      C3821   1.461       .  S
C3595      N3596   1.348       .  A
C3595      N3600   1.355       .  A
N3596      C3597   1.345       .  A
C3597      N3598   1.362       .  A
N3598      C3599   1.370       .  A
C3599      N3600   1.357       .  A
C3601      N3602   1.364       .  A
C3601      N3606   1.365       .  A
N3602      C3603   1.363       .  A
N3604      C3605   1.348       .  A
C3605      C3926   1.465       .  S
Zr3607     O3608   2.432       .  S
Zr3607     O3609   2.438       .  S
Zr3607     O3610   2.447       .  S
Zr3607     O3613   2.407       .  S
Zr3607     O3615   2.378       .  S
Zr3607     O3616   2.396       .  S
Zr3607     O3617   2.400       .  S
Zr3607     O3618   2.412       .  S
O3608      H3664   0.990       .  S
O3608      H3672   0.991       .  S
O3609      C3629   1.286       .  A
O3610      C3631   1.279       .  A
O3611     Zr3621   2.500       .  S
O3611      C3630   1.288       .  A
O3612     Zr3620   2.454       .  S
O3612      C3631   1.288       .  A
O3613      C3630   1.273       .  A
O3614     Zr3622   2.411       .  S
O3614      C3629   1.278       .  A
O3615     Zr3620   2.395       .  S
O3615     Zr3622   2.393       .  S
O3616     Zr3621   2.394       .  S
O3616     Zr3622   2.366       .  S
O3616      H3651   0.965       .  S
O3617     Zr3620   2.386       .  S
O3617     Zr3637   2.395       .  S
O3617      H3654   0.965       .  S
O3618     Zr3621   2.401       .  S
O3618     Zr3637   2.398       .  S
Zr3619     O3644   2.443       .  S
Zr3619     O3638   2.463       .  S
Zr3619     O3646   2.462       .  S
Zr3619     O3634   2.469       .  S
Zr3619     O3625   2.416       .  S
Zr3619     O3626   2.415       .  S
Zr3619     O3627   2.387       .  S
Zr3619     O3628   2.401       .  S
Zr3620     O3639   2.436       .  S
Zr3620     O3632   2.435       .  S
Zr3620     O3633   2.423       .  S
Zr3620     O3626   2.410       .  S
Zr3620     O3627   2.399       .  S
Zr3621     O3623   2.433       .  S
Zr3621     O3645   2.438       .  S
Zr3621     O3647   2.449       .  S
Zr3621     O3625   2.411       .  S
Zr3621     O3628   2.412       .  S
Zr3622     O3648   2.438       .  S
Zr3622     O3624   2.439       .  S
Zr3622     O3625   2.394       .  S
Zr3622     O3626   2.377       .  S
O3623      H3660   0.990       .  S
O3624      H3655   0.990       .  S
O3624      H3669   0.990       .  S
O3626      H3652   0.964       .  S
O3627     Zr3637   2.384       .  S
O3628     Zr3637   2.388       .  S
O3628      H3653   0.966       .  S
C3629      C3777   1.461       .  S
C3630      C3685   1.491       .  S
C3631      C3813   1.481       .  S
O3632      H3668   0.990       .  S
O3633      C3635   1.282       .  A
O3634      C3635   1.290       .  A
C3635      C3679   1.466       .  S
O3636     Zr3637   2.439       .  S
O3636      H3665   0.990       .  S
Zr3637     O3640   2.436       .  S
Zr3637     O3641   2.440       .  S
Zr3637     O3642   2.414       .  S
O3638      C3643   1.288       .  A
O3639      H3656   0.990       .  S
O3639      H3671   0.990       .  S
O3640      H3657   0.990       .  S
O3641      H3661   0.990       .  S
O3641      H3670   0.990       .  S
O3642      C3643   1.279       .  A
C3643      C3675   1.477       .  S
O3644      H3663   0.990       .  S
O3644      H3667   0.991       .  S
O3645      H3659   0.990       .  S
O3645      H3666   0.990       .  S
O3646      C3650   1.285       .  A
O3647      C3650   1.288       .  A
O3648      H3658   0.990       .  S
O3649      H3662   0.990       .  S
C3650      C3783   1.483       .  S
C3673      C4086   1.467       .  S
C3673      N3674   1.360       .  A
C3673      N3678   1.354       .  A
N3674      C3675   1.361       .  A
C3675      N3676   1.365       .  A
N3676      C3677   1.360       .  A
C3677      N3678   1.353       .  A
C3679      N3680   1.360       .  A
C3679      N3684   1.363       .  A
C3681      C3862   1.483       .  S
C3681      N3682   1.350       .  A
C3683      N3684   1.364       .  A
C3685      N3686   1.364       .  A
C3685      N3690   1.372       .  A
N3686      C3687   1.356   1_554  A
C3687      C3894   1.477       .  S
C3687      N3688   1.341       .  A
N3688      C3689   1.347       .  A
C3689      N3690   1.373   1_556  A
Zr3691     O3692   2.433       .  S
Zr3691     O3693   2.421       .  S
Zr3691     O3694   2.473       .  S
Zr3691     O3697   2.420       .  S
Zr3691     O3699   2.377       .  S
Zr3691     O3700   2.400       .  S
Zr3691     O3701   2.395       .  S
Zr3691     O3702   2.414       .  S
O3692      H3748   0.991       .  S
O3692      H3756   0.990       .  S
O3693      C3713   1.282       .  A
O3694      C3715   1.287       .  A
O3695     Zr3705   2.474       .  S
O3695      C3714   1.283       .  A
O3696     Zr3704   2.437       .  S
O3696      C3715   1.284       .  A
O3697      C3714   1.277       .  A
O3698     Zr3706   2.434       .  S
O3698      C3713   1.283       .  A
O3699     Zr3704   2.394       .  S
O3699     Zr3706   2.387       .  S
O3700     Zr3705   2.400       .  S
O3700     Zr3706   2.355       .  S
O3700      H3735   0.964       .  S
O3701     Zr3704   2.395       .  S
O3701     Zr3721   2.393       .  S
O3701      H3738   0.965       .  S
O3702     Zr3705   2.412       .  S
O3702     Zr3721   2.398       .  S
Zr3703     O3728   2.442       .  S
Zr3703     O3722   2.452       .  S
Zr3703     O3730   2.454       .  S
Zr3703     O3718   2.478       .  S
Zr3703     O3709   2.417       .  S
Zr3703     O3710   2.408       .  S
Zr3703     O3711   2.380       .  S
Zr3703     O3712   2.394       .  S
Zr3704     O3723   2.435       .  S
Zr3704     O3717   2.411   1_565  S
Zr3704     O3710   2.404       .  S
Zr3704     O3711   2.405       .  S
Zr3705     O3707   2.435       .  S
Zr3705     O3729   2.439       .  S
Zr3705     O3731   2.443       .  S
Zr3705     O3709   2.415       .  S
Zr3705     O3712   2.402       .  S
Zr3706     O3732   2.437       .  S
Zr3706     O3733   2.436       .  S
Zr3706     O3708   2.436   1_565  S
Zr3706     O3709   2.404       .  S
Zr3706     O3710   2.390       .  S
O3707      H3744   0.990       .  S
O3708      H3753   0.990       .  S
O3710      H3736   0.965       .  S
O3711     Zr3721   2.387       .  S
O3712     Zr3721   2.383       .  S
O3712      H3737   0.966       .  S
C3713      C3767   1.463       .  S
C3714      C3761   1.484       .  S
C3715      C3799   1.485       .  S
O3716      H3752   0.990       .  S
O3717      C3719   1.279   1_545  A
O3718      C3719   1.292       .  A
O3720      H3749   0.990       .  S
Zr3721     O3724   2.436       .  S
Zr3721     O3725   2.442       .  S
Zr3721     O3726   2.411       .  S
O3722      C3727   1.287       .  A
O3723      H3740   0.990   1_565  S
O3723      H3755   0.990       .  S
O3725      H3754   0.989       .  S
O3726      C3727   1.276       .  A
C3727      C3771   1.470       .  S
O3728      H3747   0.990       .  S
O3728      H3751   0.990       .  S
O3729      H3743   0.990       .  S
O3729      H3750   0.990       .  S
O3730      C3734   1.286       .  A
O3731      C3734   1.286       .  A
O3732      H3742   0.990       .  S
O3733      H3746   0.990       .  S
C3734      C3805   1.478       .  S
C3757      N3758   1.343       .  A
C3757      N3762   1.355       .  A
N3758      C3759   1.350       .  A
C3759      N3760   1.371       .  A
N3760      C3761   1.369       .  A
C3761      N3762   1.359       .  A
C3763      N3764   1.356       .  A
C3763      N3768   1.354       .  A
N3764      C3765   1.358       .  A
C3765      N3766   1.360       .  A
N3766      C3767   1.360       .  A
C3767      N3768   1.353       .  A
C3769      C4013   1.463       .  S
C3769      N3770   1.351       .  A
N3770      C3771   1.355   1_554  A
C3771      N3772   1.369   1_556  A
C3773      N3774   1.358       .  A
C3775      C3990   1.485       .  S
C3775      N3776   1.348       .  A
C3775      N3780   1.360       .  A
N3776      C3777   1.352   1_556  A
C3777      N3778   1.364   1_554  A
N3778      C3779   1.361       .  A
C3779      N3780   1.359       .  A
N3782      C3783   1.350       .  A
C3785      N3786   1.368       .  A
C3787      N3788   1.368       .  A
C3787      N3792   1.374       .  A
N3788      C3789   1.360       .  A
C3789      N3790   1.347       .  A
N3790      C3791   1.351       .  A
C3791      N3792   1.371       .  A
C3793      N3794   1.375       .  A
C3793      N3798   1.370       .  A
N3794      C3795   1.370       .  A
C3795      N3796   1.352       .  A
N3796      C3797   1.348       .  A
C3797      N3798   1.363       .  A
N3800      C3801   1.364       .  A
C3803      N3804   1.361       .  A
C3805      N3806   1.356       .  A
C3805      N3810   1.355       .  A
N3806      C3807   1.363       .  A
C3807      N3808   1.372       .  A
N3808      C3809   1.371       .  A
C3809      N3810   1.361       .  A
C3811      N3812   1.353       .  A
C3811      N3816   1.363       .  A
N3812      C3813   1.349       .  A
C3813      N3814   1.368       .  A
N3814      C3815   1.372       .  A
C3815      N3816   1.368       .  A
C3817      C3818   1.403       .  A
C3817      C3822   1.402       .  A
C3817      H3827   1.084       .  S
C3818      C3823   1.472       .  S
C3818      C3819   1.416       .  A
C3819      C3820   1.389       .  A
C3819      C3824   1.512       .  S
C3820      C3821   1.398       .  A
C3820      H3825   1.085       .  S
C3821      C3822   1.412       .  A
C3822      C3826   1.506       .  S
C3823      C3828   1.413       .  A
C3823      C3832   1.401       .  A
C3824      H3840   1.109       .  S
C3824      H3841   1.110       .  S
C3824      H3842   1.111       .  S
C3826      H3837   1.110       .  S
C3826      H3838   1.110       .  S
C3826      H3839   1.108       .  S
C3828      C3829   1.396       .  A
C3828      C3833   1.512       .  S
C3829      C3830   1.406       .  A
C3830      C3831   1.417       .  A
C3831      C3832   1.399       .  A
C3831      C3835   1.506       .  S
C3832      H3836   1.082       .  S
C3833      H3843   1.111       .  S
C3833      H3844   1.107       .  S
C3833      H3845   1.110       .  S
C3835      H3846   1.107       .  S
C3835      H3847   1.111       .  S
C3835      H3848   1.111       .  S
C3849      C3850   1.407       .  A
C3849      C3854   1.407       .  A
C3849      H3859   1.084       .  S
C3850      C3855   1.478       .  S
C3850      C3851   1.416       .  A
C3851      C3852   1.388       .  A
C3851      C3856   1.512       .  S
C3852      C3853   1.397       .  A
C3852      H3857   1.082       .  S
C3853      C3854   1.413       .  A
C3854      C3858   1.504       .  S
C3855      C3860   1.411       .  A
C3855      C3864   1.404       .  A
C3856      H3872   1.109       .  S
C3856      H3873   1.109       .  S
C3856      H3874   1.108       .  S
C3858      H3869   1.110       .  S
C3858      H3870   1.110       .  S
C3858      H3871   1.109       .  S
C3860      C3861   1.390       .  A
C3860      C3865   1.512       .  S
C3861      C3862   1.408       .  A
C3861      H3866   1.083       .  S
C3862      C3863   1.417       .  A
C3863      C3864   1.405       .  A
C3863      C3867   1.506       .  S
C3864      H3868   1.080       .  S
C3865      H3875   1.111       .  S
C3865      H3876   1.108       .  S
C3865      H3877   1.110       .  S
C3867      H3878   1.105       .  S
C3867      H3880   1.111       .  S
C3881      C3882   1.400       .  A
C3881      C3886   1.399       .  A
C3881      H3891   1.085       .  S
C3882      C3887   1.477       .  S
C3882      C3883   1.405       .  A
C3883      C3884   1.403       .  A
C3883      C3888   1.506       .  S
C3884      C3885   1.409       .  A
C3884      H3889   1.083       .  S
C3885      C3886   1.421       .  A
C3886      C3890   1.509       .  S
C3887      C3892   1.418       .  A
C3887      C3896   1.402       .  A
C3888      H3904   1.110       .  S
C3888      H3905   1.108       .  S
C3888      H3906   1.111       .  S
C3890      H3901   1.110       .  S
C3890      H3902   1.111       .  S
C3890      H3903   1.110       .  S
C3892      C3893   1.395       .  A
C3892      C3897   1.513   1_556  S
C3893      C3894   1.398       .  A
C3893      H3898   1.080   1_556  S
C3894      C3895   1.419       .  A
C3895      C3896   1.405       .  A
C3895      C3899   1.508       .  S
C3896      H3900   1.084       .  S
C3897      H3907   1.111       .  S
C3897      H3908   1.110   1_554  S
C3897      H3909   1.107       .  S
C3899      H3910   1.111       .  S
C3899      H3911   1.109       .  S
C3899      H3912   1.109       .  S
C3913      C3914   1.404       .  A
C3913      C3918   1.402       .  A
C3913      H3923   1.084       .  S
C3914      C3919   1.475       .  S
C3914      C3915   1.413       .  A
C3915      C3916   1.396       .  A
C3915      C3920   1.506       .  S
C3916      C3917   1.405       .  A
C3916      H3921   1.084       .  S
C3917      C3918   1.412       .  A
C3918      C3922   1.503       .  S
C3919      C3924   1.417       .  A
C3919      C3928   1.405       .  A
C3920      H3936   1.106       .  S
C3920      H3937   1.110       .  S
C3920      H3938   1.110       .  S
C3922      H3933   1.110       .  S
C3922      H3934   1.110       .  S
C3922      H3935   1.110       .  S
C3924      C3925   1.389       .  A
C3924      C3929   1.513       .  S
C3925      C3926   1.399       .  A
C3925      H3930   1.085       .  S
C3926      C3927   1.412       .  A
C3927      C3928   1.405       .  A
C3927      C3931   1.505       .  S
C3928      H3932   1.084       .  S
C3929      H3939   1.111       .  S
C3929      H3940   1.109       .  S
C3929      H3941   1.109       .  S
C3931      H3942   1.110       .  S
C3931      H3943   1.108       .  S
C3931      H3944   1.111       .  S
C3945      C3946   1.399       .  A
C3945      C3950   1.397       .  A
C3945      H3955   1.084       .  S
C3946      C3951   1.478       .  S
C3946      C3947   1.409       .  A
C3947      C3948   1.401       .  A
C3947      C3952   1.500       .  S
C3948      C3949   1.404       .  A
C3948      H3953   1.084       .  S
C3949      C3950   1.418       .  A
C3950      C3954   1.505       .  S
C3951      C3956   1.418       .  A
C3951      C3960   1.401       .  A
C3952      H3968   1.108       .  S
C3952      H3969   1.109       .  S
C3952      H3970   1.111       .  S
C3954      H3965   1.111       .  S
C3954      H3966   1.109       .  S
C3954      H3967   1.110       .  S
C3956      C3957   1.395       .  A
C3956      C3961   1.513       .  S
C3957      C3958   1.399   1_655  A
C3957      H3962   1.082       .  S
C3958      C3959   1.420       .  A
C3959      C3960   1.406   1_455  A
C3959      C3963   1.507       .  S
C3960      H3964   1.084       .  S
C3961      H3971   1.111       .  S
C3961      H3972   1.110       .  S
C3961      H3973   1.107       .  S
C3963      H3974   1.109       .  S
C3977      C3982   1.400       .  A
C3977      H3987   1.083       .  S
C3978      C3983   1.486       .  S
C3978      C3979   1.412       .  A
C3979      C3980   1.402       .  A
C3979      C3984   1.506       .  S
C3980      C3981   1.405       .  A
C3980      H3985   1.084       .  S
C3982      C3986   1.510       .  S
C3983      C3988   1.408       .  A
C3983      C3992   1.401       .  A
C3984      H4000   1.110       .  S
C3984      H4001   1.110       .  S
C3984      H4002   1.110       .  S
C3986      H3997   1.107   1_545  S
C3986      H3998   1.111       .  S
C3986      H3999   1.110       .  S
C3988      C3989   1.398       .  A
C3988      C3993   1.498       .  S
C3989      C3990   1.405       .  A
C3989      H3994   1.084       .  S
C3990      C3991   1.424       .  A
C3991      C3992   1.402       .  A
C3991      C3995   1.508       .  S
C3992      H3996   1.084       .  S
C3993      H4003   1.111       .  S
C3993      H4005   1.109       .  S
C3995      H4006   1.111   1_556  S
C3995      H4007   1.109   1_556  S
C3995      H4008   1.107       .  S
C4009      C4010   1.404       .  A
C4009      C4014   1.403       .  A
C4009      H4019   1.084       .  S
C4010      C4015   1.479       .  S
C4010      C4011   1.424       .  A
C4011      C4012   1.395       .  A
C4011      C4016   1.513       .  S
C4012      C4013   1.394       .  A
C4012      H4017   1.085       .  S
C4013      C4014   1.410       .  A
C4014      C4018   1.505       .  S
C4015      C4020   1.406       .  A
C4016      H4032   1.109       .  S
C4016      H4033   1.106       .  S
C4016      H4034   1.111   1_554  S
C4018      H4029   1.110       .  S
C4018      H4031   1.108       .  S
C4020      C4021   1.404       .  A
C4020      C4025   1.506       .  S
C4021      C4022   1.409       .  A
C4021      H4026   1.084       .  S
C4022      C4023   1.417       .  A
C4024      H4028   1.084       .  S
C4025      H4035   1.111       .  S
C4025      H4036   1.110       .  S
C4025      H4037   1.109       .  S
C4027      H4038   1.111       .  S
C4027      H4039   1.110       .  S
C4027      H4040   1.109       .  S
C4041      C4042   1.402       .  A
C4041      C4046   1.388       .  A
C4041      H4051   1.085       .  S
C4042      C4047   1.468       .  S
C4042      C4043   1.408       .  A
C4043      C4044   1.403       .  A
C4043      C4048   1.503       .  S
C4044      C4045   1.404       .  A
C4044      H4049   1.084       .  S
C4045      C4046   1.410       .  A
C4046      C4050   1.511       .  S
C4047      C4052   1.411       .  A
C4047      C4056   1.401       .  A
C4048      H4064   1.110       .  S
C4048      H4065   1.102       .  S
C4048      H4066   1.111       .  S
C4050      H4061   1.111       .  S
C4050      H4062   1.111       .  S
C4050      H4063   1.109       .  S
C4052      C4053   1.395       .  A
C4052      C4057   1.509       .  S
C4053      C4054   1.402       .  A
C4054      C4055   1.424       .  A
C4055      C4056   1.403       .  A
C4055      C4059   1.509       .  S
C4056      H4060   1.084       .  S
C4057      H4067   1.109       .  S
C4057      H4068   1.110       .  S
C4057      H4069   1.105       .  S
C4059      H4070   1.108       .  S
C4059      H4071   1.110       .  S
C4059      H4072   1.111       .  S
C4073      C4074   1.403       .  A
C4073      H4083   1.084       .  S
C4074      C4079   1.479       .  S
C4074      C4075   1.410       .  A
C4075      C4076   1.403       .  A
C4075      C4080   1.505       .  S
C4076      H4081   1.084       .  S
C4077      C4078   1.415       .  A
C4078      C4082   1.502       .  S
C4079      C4084   1.406       .  A
C4079      C4088   1.404       .  A
C4080      H4096   1.110       .  S
C4080      H4097   1.110       .  S
C4080      H4098   1.111       .  S
C4082      H4093   1.110       .  S
C4082      H4094   1.108       .  S
C4082      H4095   1.110       .  S
C4084      C4085   1.410       .  A
C4084      C4089   1.502       .  S
C4085      C4086   1.407       .  A
C4085      H4090   1.084       .  S
C4086      C4087   1.411       .  A
C4087      C4088   1.393       .  A
C4087      C4091   1.510       .  S
C4088      H4092   1.085       .  S
C4089      H4099   1.106       .  S
C4089      H4100   1.110       .  S
C4089      H4101   1.109       .  S
C4091      H4102   1.111       .  S
C4091      H4103   1.107       .  S
C4091      H4104   1.111       .  S
