geometry optimzed in LAMMPS
_audit_creation_date              2020-12-01 
_audit_creation_method            'lammps2cif' 
_symmetry_space_group_name_H-M    'P1' 
_symmetry_Int_Tables_number       1 
_symmetry_cell_setting            triclinic 
loop_ 
_symmetry_equiv_pos_as_xyz 
  x,y,z 
_cell_length_a                    28.56574619 
_cell_length_b                    28.59050435522714 
_cell_length_c                    39.847199546140686 
_cell_angle_alpha                 90.08018352349066 
_cell_angle_beta                  90.11973220936544 
_cell_angle_gamma                 69.42142120401442 
loop_ 
_atom_site_label 
_atom_site_type_symbol 
_atom_site_fract_x 
_atom_site_fract_y 
_atom_site_fract_z 
_atom_site_charge 
O1          O  0.14099752  0.96139857  0.05927269    -0.74400
O2          O  0.13071217  0.03292727  0.03019621    -0.53300
C3          C  0.15394071  0.99909070  0.05165555     0.79300
O4          O  0.03011349  0.85916393  0.43170123    -0.59000
O5          O  0.96455049  0.86312384  0.46545668    -0.52100
C6          C  0.99475690  0.84385474  0.44095939     0.71300
O7          O  0.13574015  0.94610459  0.43336546    -0.73600
O8          O  0.13515412  0.01616438  0.46106256    -0.54200
C9          C  0.15414098  0.98046120  0.43995634     0.77300
O10         O  0.05818017  0.85253938  0.06459925    -0.58700
O11         O  0.98779291  0.85336476  0.03735250    -0.51900
C12         C  0.02393912  0.83414590  0.05828330     0.73900
Zr13       Zr  0.07690314  0.92557585  0.04562675     2.54700
O14         O  0.15461895  0.85519757  0.03810051    -0.79300
O15         O  0.08377250  0.92222719  0.10658123    -0.92700
Zr16       Zr  0.06450979  0.92243543  0.45024797     2.64700
O17         O  0.13446958  0.84355104  0.45327553    -0.97700
O18         O  0.06244344  0.92184495  0.38921448    -0.79700
O19         O  0.09738005  0.95667286  0.99472752    -0.83100
O20         O  0.04860652  0.89527346  0.99697230    -2.17800
O21         O  0.88657136  0.00666381  0.07099835    -0.66500
O22         O  0.89298418  0.93752459  0.04027684    -0.51000
C23         C  0.87293942  0.96945771  0.06359361     0.72300
O24         O  0.97326675  0.11513149  0.43352728    -0.59400
O25         O  0.04584416  0.10819517  0.46037006    -0.51400
C26         C  0.01044185  0.12950936  0.43938829     0.74100
O27         O  0.87671106  0.01908047  0.43633620    -0.70800
O28         O  0.88039795  0.94944339  0.46581428    -0.49500
C29         C  0.86091845  0.98321522  0.44360125     0.75500
O30         O  0.96870856  0.11587100  0.06538956    -0.66100
O31         O  0.03423615  0.11693821  0.03341626    -0.53300
C32         C  0.00064092  0.13574073  0.05600843     0.73900
Zr33       Zr  0.94827883  0.04170599  0.05087403     2.77500
O34         O  0.86945077  0.11195400  0.05134622    -0.96900
O35         O  0.95373851  0.03910682  0.11184690    -0.77700
Zr36       Zr  0.94503401  0.04785164  0.45178921     2.70100
O37         O  0.87004510  0.12231798  0.45458990    -0.78900
O38         O  0.94382470  0.04769311  0.39068765    -0.98000
Zr39       Zr  0.05607948  0.04511888  0.99649983     2.21500
Zr40       Zr  0.95088985  0.93397297  0.50314327     2.11100
O41         O  0.91798517  0.02301188  0.50271700    -2.46700
O42         O  0.97510852  0.07609233  0.50052737    -0.78700
O43         O  0.98836911  0.95345595  0.04997879    -0.70900
O44         O  0.03344841  0.01122346  0.44900283    -2.31900
O45         O  0.03690815  0.01381621  0.04814464    -2.28100
O46         O  0.97619493  0.95933215  0.45164718    -0.72700
H47         H  0.06162583  0.86043407  0.99655163     0.79300
H48         H  0.04561874  0.02267400  0.42894897     0.80400
H49         H  0.88190532  0.03553690  0.50330693     0.82600
H50         H  0.04969724  0.02729957  0.06743031     0.80200
H51         H  0.02647014  0.93669362  0.38349823     0.43300
H52         H  0.97826387  0.04418417  0.38400645     0.42200
H53         H  0.87466387  0.14010921  0.47494565     0.41900
H54         H  0.86819755  0.12742767  0.07372854     0.39900
H55         H  0.93351045  0.07338341  0.11913154     0.43000
H56         H  0.10945602  0.88920400  0.11147141     0.37800
H57         H  0.16639522  0.84446107  0.06118257     0.43900
H58         H  0.14391302  0.83475263  0.42957692     0.40300
H59         H  0.87452427  0.13635123  0.03546376     0.45200
H60         H  0.05200321  0.91938800  0.11442263     0.43900
H61         H  0.16239711  0.85234951  0.46269891     0.44100
H62         H  0.94082616  0.01530424  0.38453629     0.44400
C63         C  0.01056451  0.52805067  0.17921570     0.04000
C64         C  0.00916012  0.52716711  0.21426617    -0.12200
C65         C  0.00209458  0.48717918  0.23172678     0.01500
C66         C  0.00016823  0.44603452  0.21259560    -0.10700
C67         C  0.00693440  0.44398451  0.17768002     0.04000
C68         C  0.01094842  0.48576665  0.16109552    -0.10100
H69         H  0.01416589  0.55810727  0.22732962     0.09600
H70         H  0.99194146  0.41573809  0.22415219     0.07100
H71         H  0.01391986  0.48557766  0.13397722     0.07000
C72         C  0.98235111  0.53513301  0.32293753     0.04000
C73         C  0.98266980  0.49219995  0.33995602    -0.12200
C74         C  0.99106908  0.44752252  0.32250681     0.01500
C75         C  0.99991674  0.44556404  0.28780092    -0.10700
C76         C  0.99580947  0.48892650  0.26940105     0.04000
C77         C  0.98603716  0.53384677  0.28766668    -0.10100
H78         H  0.97768967  0.49307780  0.36690279     0.09600
H79         H  0.01036882  0.40952041  0.27574856     0.07100
H80         H  0.98203869  0.56831018  0.27503694     0.07000
C81         C  0.55923632  0.96491799  0.17606608     0.04000
C82         C  0.51370874  0.97710076  0.15882138    -0.12200
C83         C  0.46915070  0.98256612  0.17610030     0.01500
C84         C  0.47082998  0.97605925  0.21119709    -0.10700
C85         C  0.51630791  0.96305762  0.22942454     0.04000
C86         C  0.56041868  0.95611182  0.21084405    -0.10100
H87         H  0.51306746  0.98177522  0.13183076     0.09600
H88         H  0.43615857  0.98104499  0.22387437     0.07100
H89         H  0.59646263  0.94421766  0.22299281     0.07000
C90         C  0.55779986  0.96388222  0.32182356     0.04000
C91         C  0.51485664  0.96416264  0.33877972    -0.12200
C92         C  0.47471147  0.95861344  0.32118529     0.01500
C93         C  0.47664948  0.95538462  0.28582146    -0.10700
C94         C  0.51738942  0.95935829  0.26753341     0.04000
C95         C  0.55830678  0.96222292  0.28636406    -0.10100
H96         H  0.51176593  0.97059219  0.36554375     0.09600
H97         H  0.44564043  0.94997757  0.27297873     0.07100
H98         H  0.59082220  0.96431939  0.27381313     0.07000
C99         C  0.96666696  0.34969083  0.37737521    -0.13500
C100        C  0.01285177  0.31052546  0.37548124     0.16900
C101        C  0.05111939  0.31666150  0.35560044     0.03200
C102        C  0.04282101  0.36168026  0.33874325    -0.12000
C103        C  0.99688497  0.40101675  0.34096350    -0.03100
C104        C  0.95836558  0.39477282  0.36055945     0.02400
C105        C  0.01662782  0.26227583  0.39088901     0.09300
N106        N  0.09825178  0.27763345  0.35131022     0.65600
H107        H  0.07269719  0.36593873  0.32373912     0.18500
N108        N  0.91018683  0.43283843  0.36316433     0.76100
H109        H  0.93641846  0.34488654  0.39167818     0.10000
C110        C  0.04360388  0.24388886  0.42062356     0.03700
C111        C  0.04147078  0.20035528  0.43542423    -0.05000
C112        C  0.01242805  0.17442597  0.42151201    -0.23400
C113        C  0.98565414  0.19298258  0.39149482     0.13000
C114        C  0.98774701  0.23659711  0.37686878    -0.12500
N115        N  0.07165734  0.26962890  0.43723261     0.64700
H116        H  0.06192433  0.18758634  0.45858246     0.12500
N117        N  0.95802275  0.16732025  0.37426982     0.61300
H118        H  0.96641739  0.25067363  0.35418715     0.08700
O119        O  0.89894401  0.45691475  0.39032126    -0.40200
O120        O  0.87535680  0.42959521  0.34484609    -0.39300
O121        O  0.10701196  0.25472842  0.32362006    -0.39300
O122        O  0.13474198  0.27956393  0.36840071    -0.37000
O123        O  0.97695086  0.14313623  0.34813451    -0.37900
O124        O  0.91110223  0.18306384  0.37752806    -0.34100
O125        O  0.05179636  0.29727752  0.46183278    -0.35500
O126        O  0.11872754  0.25097900  0.43587079    -0.39800
C127        C  0.99732025  0.74546050  0.37418473    -0.13500
C128        C  0.97129751  0.71893962  0.39053328     0.16900
C129        C  0.95491900  0.73258056  0.42377327     0.03200
C130        C  0.96277425  0.77328041  0.43914818    -0.12000
C131        C  0.98832635  0.80058575  0.42277201    -0.03100
C132        C  0.00634920  0.78551031  0.38980070     0.02400
C133        C  0.96946283  0.67270462  0.37435681     0.09300
N134        N  0.93032922  0.70574328  0.44270930     0.65600
H135        H  0.94929267  0.78292383  0.46454874     0.18500
N136        N  0.03312400  0.81037574  0.37108401     0.76100
H137        H  0.01200077  0.73414072  0.34921641     0.10000
C138        C  0.94172513  0.67280711  0.34483983     0.03700
C139        C  0.94531425  0.62762059  0.32945715    -0.05000
C140        C  0.97794384  0.58174647  0.34164590    -0.23400
C141        C  0.00694925  0.58196474  0.37052216     0.13000
C142        C  0.00186799  0.62701790  0.38662261    -0.12500
N143        N  0.90952067  0.71794445  0.32983248     0.64700
H144        H  0.92250937  0.62866306  0.30750052     0.12500
N145        N  0.04419625  0.53761373  0.38292713     0.61300
H146        H  0.02523735  0.62645678  0.40820902     0.08700
O147        O  0.07992970  0.78951917  0.36857512    -0.41000
O148        O  0.00998623  0.84006780  0.34823436    -0.39300
O149        O  0.95506959  0.67588744  0.46500841    -0.39300
O150        O  0.88347535  0.72477269  0.44584688    -0.37000
O151        O  0.08886194  0.52807969  0.37376430    -0.37900
O152        O  0.03621072  0.52010419  0.41049284    -0.34100
O153        O  0.92352021  0.73211678  0.30288659    -0.35500
O154        O  0.86324603  0.73100834  0.33548453    -0.39800
C155        C  0.95970677  0.26021920  0.10427074    -0.13500
C156        C  0.00016735  0.27577425  0.09849668     0.16900
C157        C  0.04113986  0.24439534  0.07976024     0.03200
C158        C  0.04002891  0.19952826  0.06643853    -0.12000
C159        C  0.99931942  0.18367167  0.07187206    -0.03100
C160        C  0.95883337  0.21481986  0.09148610     0.02400
C161        C  0.00215405  0.31995088  0.11718880     0.09300
N162        N  0.08459802  0.25690777  0.07393129     0.65600
H163        H  0.07203263  0.17666741  0.05200812     0.18500
N164        N  0.91598580  0.20203359  0.09874635     0.76100
H165        H  0.92892622  0.28294394  0.11976224     0.10000
C166        C  0.96986457  0.36942701  0.11065684     0.03700
C167        C  0.97223649  0.40875179  0.13077622    -0.05000
C168        C  0.00538131  0.40014915  0.15798356    -0.23400
C169        C  0.03614166  0.35025074  0.16523401     0.13000
C170        C  0.03414402  0.31112090  0.14486033    -0.12500
N171        N  0.93507602  0.38118105  0.08347362     0.64700
H172        H  0.94764858  0.44648273  0.12511081     0.12500
N173        N  0.07148834  0.33806637  0.19206460     0.61300
H174        H  0.05779603  0.27317397  0.15089919     0.08700
O175        O  0.87576827  0.22551649  0.08358054    -0.40200
O176        O  0.91356204  0.18333837  0.12707469    -0.39300
O177        O  0.12309898  0.23546605  0.09138291    -0.39300
O178        O  0.08999029  0.27316188  0.04531879    -0.37000
O179        O  0.05992085  0.32154152  0.21894988    -0.37900
O180        O  0.11718466  0.32569636  0.18468438    -0.34100
O181        O  0.88910406  0.39405833  0.09021150    -0.35500
O182        O  0.94770245  0.39635564  0.05643870    -0.39800
C183        C  0.06351323  0.71307314  0.11018373    -0.13500
C184        C  0.02169980  0.69901717  0.10619772     0.16900
C185        C  0.98013456  0.73097242  0.08806269     0.03200
C186        C  0.98236702  0.77422627  0.07321851    -0.12000
C187        C  0.02486664  0.78787748  0.07608089    -0.03100
C188        C  0.06573140  0.75671910  0.09547252     0.02400
C189        C  0.02023690  0.65435639  0.12443483     0.09300
N190        N  0.93515039  0.72046915  0.08384431     0.65600
H191        H  0.94984620  0.79736617  0.05930856     0.18500
N192        N  0.11049602  0.76725459  0.10026505     0.76100
H193        H  0.09469279  0.69029551  0.12536524     0.10000
C194        C  0.05664333  0.60596398  0.12036254     0.03700
C195        C  0.05256886  0.56573098  0.13853211    -0.05000
C196        C  0.01376825  0.57250558  0.16150833    -0.23400
C197        C  0.97912752  0.62139847  0.16687129     0.13000
C198        C  0.98280908  0.66138418  0.14839971    -0.12500
N199        N  0.09772628  0.59619389  0.09778760     0.64700
H200        H  0.08024421  0.52880353  0.13475793     0.12500
N201        N  0.93841160  0.63153880  0.18973462     0.61300
H202        H  0.95603925  0.69851757  0.15299911     0.08700
O203        O  0.14825380  0.74268064  0.08313427    -0.40200
O204        O  0.11742647  0.78406382  0.12841805    -0.39300
O205        O  0.89733599  0.74563666  0.10075903    -0.39300
O206        O  0.92822690  0.70248553  0.05613118    -0.37000
O207        O  0.94177610  0.65093030  0.21769219    -0.37900
O208        O  0.89545181  0.63920123  0.17771926    -0.34100
O209        O  0.14002905  0.59147950  0.10987322    -0.35500
O210        O  0.09603025  0.57453990  0.07044282    -0.39800
C211        C  0.66124181  0.95104252  0.38645432    -0.13500
C212        C  0.68470535  0.98193490  0.37246794     0.16900
C213        C  0.66635403  0.00624126  0.34184459     0.03200
C214        C  0.62424801  0.00095575  0.32692033    -0.12000
C215        C  0.60089398  0.96954700  0.34052761    -0.03100
C216        C  0.62015992  0.94427238  0.37095971     0.02400
C217        C  0.73020174  0.98401974  0.38945190     0.09300
N218        N  0.69106073  0.03409011  0.32406880     0.65600
H219        H  0.61013776  0.02160491  0.30406418     0.18500
N220        N  0.59908583  0.91180882  0.38712137     0.76100
H221        H  0.67532336  0.93140920  0.40970745     0.10000
C222        C  0.73403669  0.02853123  0.40246589     0.03700
C223        C  0.77749005  0.02709039  0.41930825    -0.05000
C224        C  0.81644291  0.98181965  0.42534445    -0.23400
C225        C  0.81146958  0.93694885  0.41398601     0.13000
C226        C  0.76913568  0.93866029  0.39570590    -0.12500
N227        N  0.69310695  0.07486473  0.40176521     0.64700
H228        H  0.77983767  0.06164380  0.42903177     0.12500
N229        N  0.84917160  0.88929078  0.41976742     0.61300
H230        H  0.76632820  0.90394121  0.38667445     0.08700
O231        O  0.57427704  0.92754316  0.41354716    -0.40200
O232        O  0.62072014  0.86528076  0.38361356    -0.39300
O233        O  0.71786064  0.01337274  0.29930870    -0.39300
O234        O  0.67085953  0.08102615  0.32393797    -0.37000
O235        O  0.84163782  0.86166168  0.44222442    -0.37900
O236        O  0.87848326  0.86910936  0.39602194    -0.34100
O237        O  0.66600586  0.08721655  0.42758672    -0.35500
O238        O  0.69656313  0.10908484  0.38310543    -0.39800
C239        C  0.38247188  0.93564891  0.38287593    -0.13500
C240        C  0.33677169  0.96578344  0.36914235     0.16900
C241        C  0.33720345  0.99552561  0.34080745     0.03200
C242        C  0.38254055  0.99275547  0.32628908    -0.12000
C243        C  0.42827826  0.96098701  0.33911854    -0.03100
C244        C  0.42792108  0.93283693  0.36827987     0.02400
C245        C  0.28994827  0.96858468  0.38667551     0.09300
N246        N  0.29235066  0.02764078  0.32535633     0.65600
H247        H  0.38180864  0.01577058  0.30454395     0.18500
N248        N  0.47275335  0.89984808  0.38314541     0.76100
H249        H  0.38298353  0.91412365  0.40533092     0.10000
C250        C  0.27644465  0.92616559  0.39260973     0.03700
C251        C  0.23238335  0.93123841  0.41000015    -0.05000
C252        C  0.20101587  0.97772046  0.42226002    -0.23400
C253        C  0.21561912  0.01976275  0.41717615     0.13000
C254        C  0.25973396  0.01457500  0.39983373    -0.12500
N255        N  0.30576482  0.87771890  0.38045902     0.64700
H256        H  0.22278009  0.89818800  0.41390441     0.12500
N257        N  0.18516172  0.06883448  0.42742921     0.61300
H258        H  0.27037393  0.04711851  0.39652620     0.08700
O259        O  0.48556869  0.85384837  0.37667372    -0.40200
O260        O  0.48657481  0.91277083  0.41061610    -0.39300
O261        O  0.27935186  0.07401328  0.33061815    -0.39300
O262        O  0.27876691  0.01314932  0.29832770    -0.37000
O263        O  0.16061574  0.09887236  0.40518440    -0.37900
O264        O  0.19690335  0.08645649  0.45383603    -0.34100
O265        O  0.33294034  0.84629192  0.40106683    -0.35500
O266        O  0.29086744  0.86180028  0.35449026    -0.39800
C267        C  0.65831431  0.99181900  0.12319034    -0.13500
C268        C  0.69988714  0.94827685  0.12813491     0.16900
C269        C  0.69470852  0.91011431  0.14856150     0.03200
C270        C  0.64816841  0.91581319  0.16275561    -0.12000
C271        C  0.60651574  0.95960001  0.15801808    -0.03100
C272        C  0.61219614  0.99813966  0.13801932     0.02400
C273        C  0.74836394  0.94755259  0.11442581     0.09300
N274        N  0.73639304  0.86668517  0.15704414     0.65600
H275        H  0.64490348  0.88610802  0.17837857     0.18500
N276        N  0.57289930  0.04519766  0.13381644     0.76100
H277        H  0.66210278  0.02208409  0.10837153     0.10000
C278        C  0.77188401  0.91787696  0.08677020     0.03700
C279        C  0.81302769  0.92491607  0.07168502    -0.05000
C280        C  0.83082451  0.96250120  0.08251858    -0.23400
C281        C  0.80683325  0.99239977  0.11028378     0.13000
C282        C  0.76672498  0.98407418  0.12600135    -0.12500
N283        N  0.75293345  0.88271516  0.07190838     0.64700
H284        H  0.82980814  0.90160631  0.05032158     0.12500
N285        N  0.82065091  0.03274291  0.12241442     0.61300
H286        H  0.74808613  0.00813612  0.14664777     0.08700
O287        O  0.54856926  0.05310445  0.10666840    -0.40200
O288        O  0.57555836  0.08222121  0.14994552    -0.39300
O289        O  0.75765256  0.86595708  0.18493759    -0.39300
O290        O  0.73915840  0.82565665  0.14387463    -0.37000
O291        O  0.79607989  0.07628954  0.11223769    -0.37900
O292        O  0.84269923  0.02771016  0.15037075    -0.34100
O293        O  0.72888025  0.89453611  0.04473675    -0.35500
O294        O  0.77513880  0.83700747  0.07821387    -0.39800
C295        C  0.27176437  0.02747401  0.07569951    -0.13500
C296        C  0.28515062  0.00056335  0.10564852     0.16900
C297        C  0.25275320  0.97782969  0.11900335     0.03200
C298        C  0.21025253  0.97903830  0.10111984    -0.12000
C299        C  0.19795764  0.00333282  0.07002539    -0.03100
C300        C  0.22860005  0.02941065  0.05789802     0.02400
C301        C  0.33254676  0.99730287  0.12258227     0.09300
N302        N  0.26262591  0.95197182  0.15026947     0.65600
H303        H  0.18682375  0.96019112  0.11181167     0.18500
N304        N  0.21846161  0.05623435  0.02701560     0.76100
H305        H  0.29549889  0.04652287  0.06573116     0.10000
C306        C  0.37941671  0.96434654  0.11145143     0.03700
C307        C  0.42305221  0.96110784  0.12887347    -0.05000
C308        C  0.42165142  0.99107286  0.15704860    -0.23400
C309        C  0.37480172  0.02634711  0.16685766     0.13000
C310        C  0.33099587  0.02882892  0.14972987    -0.12500
N311        N  0.38370593  0.93271398  0.08304165     0.64700
H312        H  0.45825823  0.93385291  0.12069074     0.12500
N313        N  0.37065254  0.06127248  0.19329229     0.61300
H314        H  0.29544640  0.05580131  0.15763089     0.08700
O315        O  0.24508446  0.03672363  0.00192871    -0.40200
O316        O  0.19807815  0.10317813  0.02815603    -0.39300
O317        O  0.23700089  0.97299377  0.17541542    -0.39300
O318        O  0.28108508  0.90489300  0.14966491    -0.37000
O319        O  0.37043983  0.10417832  0.18569104    -0.37900
O320        O  0.35019631  0.05596870  0.22034958    -0.34100
O321        O  0.39848814  0.94477574  0.05566213    -0.35500
O322        O  0.38991479  0.88737546  0.08810055    -0.39800
O323        O  0.14184570  0.95068373  0.56032944    -0.74400
O324        O  0.13951674  0.01939887  0.53050424    -0.53300
C325        C  0.16015580  0.98435454  0.55157289     0.79300
O326        O  0.04242363  0.85744838  0.92815157    -0.59000
O327        O  0.97945014  0.85530275  0.96247591    -0.52100
C328        C  0.01028885  0.83812072  0.93813544     0.71300
O329        O  0.13034479  0.96324750  0.92889691    -0.73600
O330        O  0.12372502  0.03443565  0.95741896    -0.54200
C331        C  0.14441032  0.00060385  0.93546094     0.77300
O332        O  0.03877524  0.85917061  0.57083939    -0.58700
O333        O  0.96823933  0.86488448  0.54182678    -0.51900
C334        C  0.00198422  0.84441925  0.56407662     0.73900
Zr335      Zr  0.07016197  0.92367092  0.54989288     2.54700
O336        O  0.14186411  0.84656464  0.54429441    -0.79300
O337        O  0.08033816  0.92123933  0.61069567    -0.92700
Zr338      Zr  0.06753683  0.92775707  0.94607181     2.64700
O339        O  0.14523675  0.85596156  0.94715772    -0.97700
O340        O  0.06463237  0.92711564  0.88500518    -0.79700
O341        O  0.09623619  0.94911232  0.49884460    -0.83100
O342        O  0.03947021  0.89536929  0.50128499    -2.17800
O343        O  0.88071284  0.02568377  0.57133091    -0.66500
O344        O  0.87920946  0.95887667  0.54050151    -0.51000
C345        C  0.86149110  0.99288199  0.56306727     0.72300
O346        O  0.95339236  0.11988177  0.93675817    -0.59400
O347        O  0.02456744  0.12009500  0.96233974    -0.51400
C348        C  0.98608619  0.13998894  0.94332470     0.74100
O349        O  0.87343251  0.00962048  0.93839561    -0.70800
O350        O  0.88707547  0.93580523  0.96556892    -0.49500
C351        C  0.86229770  0.97071925  0.94530630     0.75500
O352        O  0.97799203  0.11724159  0.56598400    -0.66100
O353        O  0.04699202  0.11072782  0.53518263    -0.53300
C354        C  0.01339317  0.13253584  0.55731211     0.73900
Zr355      Zr  0.95014460  0.04871312  0.55151168     2.77500
O356        O  0.87584040  0.12407669  0.55024531    -0.96900
O357        O  0.95396974  0.04879471  0.61257423    -0.77700
Zr358      Zr  0.93938224  0.04318405  0.95093646     2.70100
O359        O  0.85915988  0.11174719  0.94887965    -0.78900
O360        O  0.94287515  0.03845069  0.88987073    -0.98000
Zr361      Zr  0.06366064  0.03821854  0.49846856     2.21500
Zr362      Zr  0.95984912  0.92525995  0.00049998     2.11100
O363        O  0.91817740  0.01349625  0.00212033    -2.46700
O364        O  0.96731504  0.07347842  0.99977632    -0.78700
O365        O  0.98153283  0.95998652  0.55275080    -0.70900
O366        O  0.02790909  0.01622177  0.94680787    -2.31900
O367        O  0.03880616  0.01252339  0.55049010    -2.28100
O368        O  0.97898211  0.95535570  0.94872967    -0.72700
H369        H  0.04876938  0.86105546  0.50141028     0.79300
H370        H  0.03725593  0.03090020  0.92688619     0.80400
H371        H  0.88254984  0.02220026  0.00356166     0.82600
H372        H  0.05285618  0.02469613  0.56948908     0.80200
H373        H  0.06703504  0.95943621  0.87810523     0.43300
H374        H  0.97891752  0.02500597  0.88432394     0.42200
H375        H  0.86447903  0.13978752  0.96093085     0.41900
H376        H  0.87180658  0.13651519  0.57365259     0.39900
H377        H  0.93583227  0.08395250  0.61911297     0.43000
H378        H  0.04814138  0.92091477  0.61963879     0.37800
H379        H  0.13141860  0.82621932  0.52781668     0.43900
H380        H  0.16782041  0.86645996  0.96179949     0.40300
H381        H  0.88597441  0.14873454  0.53759138     0.45200
H382        H  0.08080392  0.95465978  0.61676489     0.43900
H383        H  0.13755517  0.83026593  0.96035858     0.44100
H384        H  0.93070168  0.01101391  0.88409808     0.44400
C385        C  0.98968366  0.53357916  0.67957494     0.04000
C386        C  0.98110352  0.53480984  0.71419693    -0.12200
C387        C  0.98805583  0.49062987  0.73259569     0.01500
C388        C  0.00206467  0.44476857  0.71486009    -0.10700
C389        C  0.01022724  0.44276256  0.68001833     0.04000
C390        C  0.00484174  0.48737351  0.66285738    -0.10100
H391        H  0.96981210  0.57056474  0.72666295     0.09600
H392        H  0.00645285  0.41039497  0.72783055     0.07100
H393        H  0.01177024  0.48627704  0.63608037     0.07000
C394        C  0.98548510  0.53262349  0.82426292     0.04000
C395        C  0.97531884  0.49446964  0.84115076    -0.12200
C396        C  0.96835779  0.45536554  0.82315064     0.01500
C397        C  0.97072611  0.45513690  0.78782251    -0.10700
C398        C  0.98199003  0.49257214  0.77018121     0.04000
C399        C  0.98926701  0.53123157  0.78909494    -0.10100
H400        H  0.97370641  0.49479273  0.86829896     0.09600
H401        H  0.96441133  0.42491832  0.77450413     0.07100
H402        H  0.99921145  0.56021990  0.77698269     0.07000
C403        C  0.54930732  0.98877707  0.67748810     0.04000
C404        C  0.50887160  0.98452519  0.65968302    -0.12200
C405        C  0.46793041  0.97997945  0.67671999     0.01500
C406        C  0.46934755  0.97548034  0.71177902    -0.10700
C407        C  0.50954827  0.97981082  0.73067068     0.04000
C408        C  0.54922445  0.98709834  0.71282121    -0.10100
H409        H  0.50907778  0.98510424  0.63249166     0.09600
H410        H  0.43896756  0.96783295  0.72378504     0.07100
H411        H  0.58018099  0.99222959  0.72598338     0.07000
C412        C  0.55357372  0.96844945  0.82281219     0.04000
C413        C  0.50819458  0.97858544  0.83970273    -0.12200
C414        C  0.46411643  0.98579567  0.82182440     0.01500
C415        C  0.46450531  0.98774797  0.78657272    -0.10700
C416        C  0.50940433  0.97790194  0.76857585     0.04000
C417        C  0.55397744  0.96652385  0.78735618    -0.10100
H418        H  0.50657330  0.98242132  0.86670710     0.09600
H419        H  0.42921779  0.99698139  0.77358390     0.07100
H420        H  0.58955625  0.95615988  0.77466556     0.07000
C421        C  0.93854357  0.36764810  0.88469786    -0.13500
C422        C  0.97628533  0.32256239  0.87660872     0.16900
C423        C  0.00889833  0.32106370  0.84981379     0.03200
C424        C  0.00420247  0.36474696  0.83244824    -0.12000
C425        C  0.96747939  0.41040800  0.84108406    -0.03100
C426        C  0.93418940  0.41166021  0.86762390     0.02400
C427        C  0.97801157  0.27731932  0.89491915     0.09300
N428        N  0.04714619  0.27586842  0.83968712     0.65600
H429        H  0.03048037  0.36308688  0.81247852     0.18500
N430        N  0.89559111  0.45662660  0.87773562     0.76100
H431        H  0.91245136  0.36874359  0.90467061     0.10000
C432        C  0.01231788  0.25689800  0.92099791     0.03700
C433        C  0.01337456  0.21295599  0.93671142    -0.05000
C434        C  0.97973263  0.18913594  0.92766627    -0.23400
C435        C  0.94206450  0.21284082  0.90354872     0.13000
C436        C  0.94211184  0.25612521  0.88733874    -0.12500
N437        N  0.04518610  0.28099608  0.93289251     0.64700
H438        H  0.04098430  0.19757342  0.95622013     0.12500
N439        N  0.90362072  0.19400645  0.89454323     0.61300
H440        H  0.91393186  0.27322583  0.86843311     0.08700
O441        O  0.90072577  0.47600872  0.90533399    -0.40200
O442        O  0.85193157  0.46495210  0.86677175    -0.39300
O443        O  0.04079841  0.25512853  0.81294601    -0.39300
O444        O  0.09122876  0.26813276  0.84954610    -0.37000
O445        O  0.90833503  0.16980112  0.86749618    -0.37900
O446        O  0.86015940  0.21615053  0.90584254    -0.34100
O447        O  0.03177547  0.30957601  0.95798010    -0.35500
O448        O  0.09123984  0.26105635  0.92667667    -0.39800
C449        C  0.01168964  0.73820250  0.87356481    -0.13500
C450        C  0.99272318  0.70810387  0.89282348     0.16900
C451        C  0.98422060  0.71849814  0.92739062     0.03200
C452        C  0.99152258  0.76026549  0.94120445    -0.12000
C453        C  0.00822961  0.79212775  0.92169191    -0.03100
C454        C  0.01981983  0.77969803  0.88752236     0.02400
C455        C  0.98744457  0.66352737  0.87675072     0.09300
N456        N  0.96711936  0.68814645  0.94903985     0.65600
H457        H  0.98372211  0.76782747  0.96768222     0.18500
N458        N  0.03781770  0.80927033  0.86590382     0.76100
H459        H  0.02050702  0.72928634  0.84733877     0.10000
C460        C  0.95481892  0.66693500  0.84934654     0.03700
C461        C  0.95512382  0.62363593  0.83302364    -0.05000
C462        C  0.98796046  0.57657262  0.84279418    -0.23400
C463        C  0.02121351  0.57317760  0.86976447     0.13000
C464        C  0.02047840  0.61651207  0.88643525    -0.12500
N465        N  0.92030236  0.71359552  0.83786958     0.64700
H466        H  0.92916742  0.62687364  0.81250150     0.12500
N467        N  0.05794009  0.52680722  0.87957137     0.61300
H468        H  0.04720048  0.61353002  0.90640921     0.08700
O469        O  0.08353004  0.79277462  0.85808390    -0.41000
O470        O  0.00715587  0.83873097  0.84591063    -0.39300
O471        O  0.99851103  0.65785895  0.96825523    -0.39300
O472        O  0.92176236  0.70441718  0.95770886    -0.37000
O473        O  0.10214896  0.51680341  0.86927633    -0.37900
O474        O  0.05101163  0.50680543  0.90640336    -0.34100
O475        O  0.92962775  0.73102065  0.81063010    -0.35500
O476        O  0.87531416  0.72584547  0.84700934    -0.39800
C477        C  0.98094822  0.25385601  0.60782899    -0.13500
C478        C  0.02491520  0.26426961  0.60482452     0.16900
C479        C  0.06572229  0.23017578  0.58737382     0.03200
C480        C  0.06077054  0.18800867  0.57212498    -0.12000
C481        C  0.01612457  0.17802365  0.57428149    -0.03100
C482        C  0.97585071  0.21174742  0.59285316     0.02400
C483        C  0.02638895  0.31011776  0.62147989     0.09300
N484        N  0.11222047  0.23776220  0.58398755     0.65600
H485        H  0.09251333  0.16281821  0.55856382     0.18500
N486        N  0.92856242  0.20572862  0.59614277     0.76100
H487        H  0.94979838  0.27904586  0.62192939     0.10000
C488        C  0.99328077  0.35782344  0.61196811     0.03700
C489        C  0.98940819  0.39959449  0.63141217    -0.05000
C490        C  0.01827625  0.39584543  0.66045791    -0.23400
C491        C  0.05207674  0.34792642  0.66980362     0.13000
C492        C  0.05528380  0.30574970  0.65048398    -0.12500
N493        N  0.96329064  0.36508037  0.58240780     0.64700
H494        H  0.96270668  0.43544232  0.62379003     0.12500
N495        N  0.08578005  0.34117249  0.69734235     0.61300
H496        H  0.08017035  0.26920730  0.65843885     0.08700
O497        O  0.89235056  0.23425901  0.57927133    -0.40200
O498        O  0.91929002  0.18795451  0.62325079    -0.39300
O499        O  0.14910983  0.21020447  0.60076705    -0.39300
O500        O  0.12044524  0.25650946  0.55698175    -0.37000
O501        O  0.07769242  0.32071797  0.72366174    -0.37900
O502        O  0.13001780  0.33814687  0.69103686    -0.34100
O503        O  0.91691276  0.37460829  0.58563295    -0.35500
O504        O  0.97886927  0.37935909  0.55613268    -0.39800
C505        C  0.02590233  0.73106529  0.62214932    -0.13500
C506        C  0.99151415  0.71079150  0.60955267     0.16900
C507        C  0.95803561  0.73690529  0.58415201     0.03200
C508        C  0.96194668  0.78039641  0.57055231    -0.12000
C509        C  0.99807988  0.79987986  0.58191693    -0.03100
C510        C  0.02956941  0.77496702  0.60886410     0.02400
C511        C  0.98975644  0.66439413  0.62518724     0.09300
N512        N  0.92070600  0.71950349  0.57080462     0.65600
H513        H  0.93663520  0.79837436  0.55032423     0.18500
N514        N  0.06584615  0.79271959  0.62336143     0.76100
H515        H  0.05032706  0.71255492  0.64268755     0.10000
C516        C  0.03092644  0.61894549  0.62413116     0.03700
C517        C  0.02924287  0.57729813  0.64164873    -0.05000
C518        C  0.98779426  0.57960372  0.66117767    -0.23400
C519        C  0.94716939  0.62564768  0.66308142     0.13000
C520        C  0.94848528  0.66717553  0.64495923    -0.12500
N521        N  0.07490056  0.61375174  0.60529366     0.64700
H522        H  0.06130226  0.54289272  0.64040673     0.12500
N523        N  0.90365970  0.63124034  0.68251480     0.61300
H524        H  0.91737113  0.70225237  0.64693913     0.08700
O525        O  0.11098504  0.77123968  0.61513988    -0.40200
O526        O  0.05636426  0.81390107  0.65163195    -0.39300
O527        O  0.87578178  0.74218077  0.57912414    -0.39300
O528        O  0.92939908  0.69659107  0.54312747    -0.37000
O529        O  0.89814280  0.65447304  0.71003032    -0.37900
O530        O  0.86527543  0.62984331  0.66746900    -0.34100
O531        O  0.11448520  0.60964049  0.62111207    -0.35500
O532        O  0.07855655  0.59550232  0.57616008    -0.39800
C533        C  0.65684973  0.94161694  0.88938619    -0.13500
C534        C  0.68554524  0.96783622  0.87602125     0.16900
C535        C  0.67280019  0.99058550  0.84434862     0.03200
C536        C  0.62975355  0.99023984  0.82803358    -0.12000
C537        C  0.59979749  0.96524750  0.84155842    -0.03100
C538        C  0.61442471  0.93981476  0.87258152     0.02400
C539        C  0.72979685  0.96862467  0.89491613     0.09300
N540        N  0.70421872  0.01193553  0.82722419     0.65600
H541        H  0.61979926  0.01005793  0.80442224     0.18500
N542        N  0.58774469  0.91142066  0.88758345     0.76100
H543        H  0.66749422  0.92233245  0.91315531     0.10000
C544        C  0.73087901  0.01191090  0.91136550     0.03700
C545        C  0.77441081  0.01123056  0.92771809    -0.05000
C546        C  0.81673273  0.96755421  0.92927551    -0.23400
C547        C  0.81429919  0.92320544  0.91481635     0.13000
C548        C  0.77107185  0.92432668  0.89767818    -0.12500
N549        N  0.68772924  0.05630757  0.91316688     0.64700
H550        H  0.77487870  0.04513489  0.93970839     0.12500
N551        N  0.85573510  0.87723149  0.91558944     0.61300
H552        H  0.76999978  0.89044419  0.88599196     0.08700
O553        O  0.56277243  0.92874356  0.91371726    -0.40200
O554        O  0.60408120  0.86470660  0.88325911    -0.39300
O555        O  0.73218886  0.98654875  0.80429691    -0.39300
O556        O  0.69070391  0.05889470  0.82591741    -0.37000
O557        O  0.85493626  0.84437261  0.93646619    -0.37900
O558        O  0.88143891  0.86349333  0.88927332    -0.34100
O559        O  0.66290194  0.06532903  0.94007857    -0.35500
O560        O  0.68558934  0.09238623  0.89430853    -0.39800
C561        C  0.36686109  0.96403414  0.87829712    -0.13500
C562        C  0.32321780  0.00116195  0.86721855     0.16900
C563        C  0.32712739  0.03703077  0.84386589     0.03200
C564        C  0.37380815  0.03237292  0.83062111    -0.12000
C565        C  0.41688748  0.99251905  0.83975394    -0.03100
C566        C  0.41309877  0.95850413  0.86438422     0.02400
C567        C  0.27542382  0.00189366  0.88202056     0.09300
N568        N  0.28460892  0.07722604  0.83197969     0.65600
H569        H  0.37613888  0.05951975  0.81233726     0.18500
N570        N  0.45454908  0.91566482  0.87403431     0.76100
H571        H  0.36504430  0.93795946  0.89751171     0.10000
C572        C  0.26229897  0.95851291  0.88357584     0.03700
C573        C  0.21982344  0.95955970  0.90112993    -0.05000
C574        C  0.18860129  0.00316624  0.91692348    -0.23400
C575        C  0.20141075  0.04676316  0.91481030     0.13000
C576        C  0.24499905  0.04518711  0.89818844    -0.12500
N577        N  0.29032330  0.91318902  0.86670590     0.64700
H578        H  0.21137527  0.92547845  0.90219149     0.12500
N579        N  0.16947575  0.09409515  0.92700733     0.61300
H580        H  0.25508406  0.07833494  0.89804550     0.08700
O581        O  0.45741901  0.87406003  0.86172579    -0.40200
O582        O  0.47370658  0.91612670  0.90250860    -0.39300
O583        O  0.27746820  0.12049500  0.84320914    -0.39300
O584        O  0.26801271  0.07319730  0.80316378    -0.37000
O585        O  0.14325293  0.12514006  0.90584272    -0.37900
O586        O  0.18157618  0.11054084  0.95378597    -0.34100
O587        O  0.31770052  0.87692704  0.88405026    -0.35500
O588        O  0.27359518  0.90391214  0.83913222    -0.39800
C589        C  0.63321995  0.02613672  0.61679539    -0.13500
C590        C  0.67958944  0.98956388  0.62378529     0.16900
C591        C  0.68302366  0.95448305  0.64954542     0.03200
C592        C  0.64004301  0.95512789  0.66639383    -0.12000
C593        C  0.59345547  0.99121575  0.65914145    -0.03100
C594        C  0.59031434  0.02751112  0.63428074     0.02400
C595        C  0.72453793  0.99274162  0.60715737     0.09300
N596        N  0.72970846  0.91822382  0.65950476     0.65600
H597        H  0.64318748  0.92713023  0.68544385     0.18500
N598        N  0.54467495  0.06749091  0.62739113     0.76100
H599        H  0.63054881  0.05480764  0.59835118     0.10000
C600        C  0.73347054  0.98538566  0.57232005     0.03700
C601        C  0.77854818  0.98544928  0.55899231    -0.05000
C602        C  0.81412856  0.99545485  0.57914248    -0.23400
C603        C  0.80259976  0.00817796  0.61324651     0.13000
C604        C  0.75851541  0.00579443  0.62689385    -0.12500
N605        N  0.69779818  0.97799612  0.54977849     0.64700
H606        H  0.78542499  0.97824550  0.53238669     0.12500
N607        N  0.83521398  0.02213115  0.63496658     0.61300
H608        H  0.75072336  0.01426703  0.65327762     0.08700
O609        O  0.52095532  0.06519405  0.60107449    -0.40200
O610        O  0.53850637  0.10984200  0.63986307    -0.39300
O611        O  0.74985203  0.92597506  0.68614397    -0.39300
O612        O  0.73997194  0.87376902  0.64968679    -0.37000
O613        O  0.82203773  0.06722416  0.64407713    -0.37900
O614        O  0.86409579  0.98904046  0.65382675    -0.34100
O615        O  0.67348617  0.01393944  0.53103434    -0.35500
O616        O  0.70485887  0.93412110  0.53986816    -0.39800
C617        C  0.28458119  0.00146819  0.57175060    -0.13500
C618        C  0.29738599  0.97442708  0.60157042     0.16900
C619        C  0.26432676  0.95291776  0.61524764     0.03200
C620        C  0.22043195  0.95680827  0.59832270    -0.12000
C621        C  0.20761065  0.98266196  0.56787385    -0.03100
C622        C  0.24034837  0.00577032  0.55469603     0.02400
C623        C  0.34187390  0.97479892  0.62008870     0.09300
N624        N  0.27421019  0.92702779  0.64647091     0.65600
H625        H  0.19588974  0.93971209  0.60959009     0.18500
N626        N  0.23130044  0.03188289  0.52353794     0.76100
H627        H  0.30906457  0.01960420  0.56166470     0.10000
C628        C  0.39067210  0.94214280  0.61256955     0.03700
C629        C  0.43112593  0.94448778  0.63137604    -0.05000
C630        C  0.42394476  0.97907650  0.65752436    -0.23400
C631        C  0.37516788  0.01285202  0.66413865     0.13000
C632        C  0.33486881  0.01049847  0.64529899    -0.12500
N633        N  0.40005887  0.90519460  0.58689398     0.64700
H634        H  0.46833977  0.91850960  0.62586045     0.12500
N635        N  0.36548253  0.05050483  0.68936191     0.61300
H636        H  0.29764003  0.03674079  0.65048704     0.08700
O637        O  0.25651338  0.01000298  0.49846417    -0.40200
O638        O  0.21527799  0.07902743  0.52429731    -0.39300
O639        O  0.25083752  0.94916698  0.67209085    -0.39300
O640        O  0.29017548  0.87991502  0.64585410    -0.37000
O641        O  0.35819244  0.09477248  0.68025612    -0.37900
O642        O  0.34687386  0.04351908  0.71675824    -0.34100
O643        O  0.41996714  0.91188894  0.55994237    -0.35500
O644        O  0.40553120  0.86112345  0.59547102    -0.39800
loop_ 
_geom_bond_atom_site_label_1 
_geom_bond_atom_site_label_2 
_geom_bond_distance 
_geom_bond_site_symmetry_2 
_ccdc_geom_bond_type 
O1          Zr13   2.451       .  S
O1            C3   1.293       .  A
O2          Zr39   2.436   1_554  S
O2            C3   1.287   1_545  A
C3          C299   1.495   1_565  S
O4          Zr16   2.455       .  S
O4            C6   1.289   1_455  A
O5          Zr40   2.439       .  S
O5            C6   1.292       .  A
C6          C131   1.499       .  S
O7          Zr16   2.455       .  S
O7            C9   1.293       .  A
O8         Zr361   2.428       .  S
O8            C9   1.286   1_545  A
C9          C252   1.492       .  S
O10         Zr13   2.451       .  S
O10          C12   1.287       .  A
O11        Zr362   2.423       .  S
O11          C12   1.289   1_655  A
C12         C187   1.494       .  S
Zr13         O14   2.435       .  S
Zr13         O15   2.436       .  S
Zr13         O19   2.371   1_554  S
Zr13         O20   2.376   1_554  S
Zr13         O43   2.376   1_455  S
Zr13         O45   2.378   1_565  S
O14          H57   0.990       .  S
O15          H56   0.990       .  S
O15          H60   0.990       .  S
Zr16         O17   2.434       .  S
Zr16         O18   2.433       .  S
Zr16         O44   2.377   1_565  S
Zr16         O46   2.369   1_455  S
Zr16        O342   2.376       .  S
Zr16        O341   2.372       .  S
O17          H58   0.990       .  S
O17          H61   0.990       .  S
O18          H51   0.990       .  S
O19         Zr39   2.386   1_565  S
O19        Zr338   2.378       .  S
O20        Zr338   2.373       .  S
O20        Zr362   2.378   1_456  S
O20          H47   0.933       .  S
O21         Zr33   2.450       .  S
O21          C23   1.288   1_545  A
O22        Zr362   2.413       .  S
O22          C23   1.287       .  A
C23         C280   1.493       .  S
O24         Zr36   2.445       .  S
O24          C26   1.287   1_655  A
O25        Zr361   2.420       .  S
O25          C26   1.288       .  A
C26         C112   1.488       .  S
O27         Zr36   2.447       .  S
O27          C29   1.290   1_545  A
O28         Zr40   2.414       .  S
O28          C29   1.284       .  A
C29         C224   1.475       .  S
O30         Zr33   2.457       .  S
O30          C32   1.289   1_655  A
O31         Zr39   2.422   1_554  S
O31          C32   1.288       .  A
C32         C159   1.497   1_455  S
Zr33         O34   2.434       .  S
Zr33         O35   2.434       .  S
Zr33         O45   2.375   1_655  S
Zr33         O43   2.376   1_545  S
Zr33        O363   2.375       .  S
Zr33        O364   2.371   1_554  S
O34          H54   0.990       .  S
O34          H59   0.990       .  S
O35          H55   0.990       .  S
Zr36         O37   2.435       .  S
Zr36         O38   2.435       .  S
Zr36         O42   2.374       .  S
Zr36         O41   2.370       .  S
Zr36         O46   2.369   1_545  S
Zr36         O44   2.373   1_655  S
O37          H53   0.990       .  S
O38          H52   0.990       .  S
O38          H62   0.990       .  S
Zr39        O330   2.418       .  S
Zr39        O347   2.430       .  S
Zr39         O45   2.385   1_556  S
Zr39        O364   2.379   1_455  S
Zr39        O366   2.389       .  S
Zr40        O333   2.417       .  S
Zr40        O344   2.429       .  S
Zr40         O41   2.384   1_565  S
Zr40         O46   2.374       .  S
Zr40        O342   2.380   1_655  S
Zr40        O365   2.382       .  S
O41        Zr355   2.372       .  S
O41          H49   0.965       .  S
O42        Zr355   2.377       .  S
O42        Zr361   2.378   1_655  S
O43        Zr362   2.377       .  S
O44        Zr361   2.384       .  S
O44          H48   0.974       .  S
O45          H50   0.985       .  S
C63         C196   1.485       .  S
C63          C64   1.398       .  A
C63          C68   1.404       .  A
C64          C65   1.413       .  A
C64          H69   1.078       .  S
C65          C76   1.511   1_455  S
C65          C66   1.418       .  A
C66          C67   1.403       .  A
C66          H70   1.078   1_455  S
C67         C168   1.492       .  S
C67          C68   1.406       .  A
C68          H71   1.084       .  S
C72         C140   1.492       .  S
C72          C73   1.400       .  A
C72          C77   1.409       .  A
C73          C74   1.398       .  A
C73          H78   1.083       .  S
C74         C103   1.478       .  S
C74          C75   1.404       .  A
C75          C76   1.410       .  A
C75          H79   1.079   1_655  S
C76          C77   1.415       .  A
C77          H80   1.077       .  S
C81         C271   1.491       .  S
C81          C82   1.401       .  A
C81          C86   1.407       .  A
C82          C83   1.408       .  A
C82          H87   1.083       .  S
C83         C308   1.497       .  S
C83          C84   1.410       .  A
C84          C85   1.418       .  A
C84          H88   1.077       .  S
C85          C94   1.522       .  S
C85          C86   1.415       .  A
C86          H89   1.078       .  S
C90         C215   1.494       .  S
C90          C91   1.399       .  A
C90          C95   1.414       .  A
C91          C92   1.399       .  A
C91          H96   1.080       .  S
C92         C243   1.488       .  S
C92          C93   1.412       .  A
C93          C94   1.412       .  A
C93          H97   1.079       .  S
C94          C95   1.414       .  A
C95          H98   1.076       .  S
C99         C100   1.401   1_655  A
C99         C104   1.398       .  A
C99         H109   1.084       .  S
C100        C105   1.480       .  S
C100        C101   1.411       .  A
C101        C102   1.397       .  A
C101        N106   1.425       .  S
C102        C103   1.399   1_455  A
C102        H107   1.084       .  S
C103        C104   1.412       .  A
C104        N108   1.427       .  S
C105        C110   1.410       .  A
C105        C114   1.398   1_455  A
N106        O121   1.262       .  A
N106        O122   1.261       .  A
N108        O119   1.262       .  A
N108        O120   1.262       .  A
C110        C111   1.399       .  A
C110        N115   1.426       .  S
C111        C112   1.405       .  A
C111        H116   1.084       .  S
C112        C113   1.418   1_455  A
C113        C114   1.397       .  A
C113        N117   1.427       .  S
C114        H118   1.085       .  S
N115        O125   1.262       .  A
N115        O126   1.262       .  A
N117        O123   1.262       .  A
N117        O124   1.262       .  A
C127        C128   1.397       .  A
C127        C132   1.403   1_655  A
C127        H137   1.084   1_655  S
C128        C133   1.487       .  S
C128        C129   1.414       .  A
C129        C130   1.400       .  A
C129        N134   1.426       .  S
C130        C131   1.404       .  A
C130        H135   1.084       .  S
C131        C132   1.422   1_655  A
C132        N136   1.426       .  S
C133        C138   1.416       .  A
C133        C142   1.397   1_655  A
N134        O149   1.262       .  A
N134        O150   1.262       .  A
N136        O147   1.262       .  A
N136        O148   1.262       .  A
C138        C139   1.400       .  A
C138        N143   1.426       .  S
C139        C140   1.402       .  A
C139        H144   1.084       .  S
C140        C141   1.418   1_655  A
C141        C142   1.399       .  A
C141        N145   1.427       .  S
C142        H146   1.084       .  S
N143        O153   1.262       .  A
N143        O154   1.262       .  A
N145        O151   1.262       .  A
N145        O152   1.262       .  A
C155        C156   1.396   1_655  A
C155        C160   1.402       .  A
C155        H165   1.084       .  S
C156        C161   1.484       .  S
C156        C157   1.413       .  A
C157        C158   1.398       .  A
C157        N162   1.427       .  S
C158        C159   1.406   1_455  A
C158        H163   1.084       .  S
C159        C160   1.421       .  A
C160        N164   1.425       .  S
C161        C166   1.415   1_455  A
C161        C170   1.396       .  A
N162        O177   1.262       .  A
N162        O178   1.262       .  A
N164        O175   1.262       .  A
N164        O176   1.262       .  A
C166        C167   1.401       .  A
C166        N171   1.427       .  S
C167        C168   1.402   1_655  A
C167        H172   1.084       .  S
C168        C169   1.418       .  A
C169        C170   1.399       .  A
C169        N173   1.426       .  S
C170        H174   1.085       .  S
N171        O181   1.262       .  A
N171        O182   1.262       .  A
N173        O179   1.262       .  A
N173        O180   1.262       .  A
C183        C184   1.396       .  A
C183        C188   1.401       .  A
C183        H193   1.084       .  S
C184        C189   1.483       .  S
C184        C185   1.415   1_455  A
C185        C186   1.393       .  A
C185        N190   1.428       .  S
C186        C187   1.404   1_655  A
C186        H191   1.084       .  S
C187        C188   1.421       .  A
C188        N192   1.425       .  S
C189        C194   1.418       .  A
C189        C198   1.396   1_455  A
N190        O205   1.263       .  A
N190        O206   1.262       .  A
N192        O203   1.262       .  A
N192        O204   1.262       .  A
C194        C195   1.399       .  A
C194        N199   1.427       .  S
C195        C196   1.399       .  A
C195        H200   1.084       .  S
C196        C197   1.417   1_455  A
C197        C198   1.395       .  A
C197        N201   1.426       .  S
C198        H202   1.084       .  S
N199        O209   1.262       .  A
N199        O210   1.262       .  A
N201        O207   1.262       .  A
N201        O208   1.262       .  A
C211        C212   1.400       .  A
C211        C216   1.397       .  A
C211        H221   1.085       .  S
C212        C217   1.484       .  S
C212        C213   1.411   1_565  A
C213        C214   1.396       .  A
C213        N218   1.426       .  S
C214        C215   1.403   1_545  A
C214        H219   1.083       .  S
C215        C216   1.420       .  A
C216        N220   1.426       .  S
C217        C222   1.413   1_565  A
C217        C226   1.402       .  A
N218        O233   1.262       .  A
N218        O234   1.261       .  A
N220        O231   1.261       .  A
N220        O232   1.262       .  A
C222        C223   1.398       .  A
C222        N227   1.426       .  S
C223        C224   1.399   1_545  A
C223        H228   1.084       .  S
C224        C225   1.413       .  A
C225        C226   1.396       .  A
C225        N229   1.428       .  S
C226        H230   1.084       .  S
N227        O237   1.262       .  A
N227        O238   1.261       .  A
N229        O235   1.262       .  A
N229        O236   1.262       .  A
C239        C240   1.398       .  A
C239        C244   1.400       .  A
C239        H249   1.084       .  S
C240        C245   1.487       .  S
C240        C241   1.417       .  A
C241        C242   1.396       .  A
C241        N246   1.427   1_565  S
C242        C243   1.399       .  A
C242        H247   1.084   1_565  S
C243        C244   1.417       .  A
C244        N248   1.425       .  S
C245        C250   1.416       .  A
C245        C254   1.397   1_565  A
N246        O261   1.262       .  A
N246        O262   1.262       .  A
N248        O259   1.261       .  A
N248        O260   1.261       .  A
C250        C251   1.400       .  A
C250        N255   1.428       .  S
C251        C252   1.404       .  A
C251        H256   1.084       .  S
C252        C253   1.419   1_565  A
C253        C254   1.400       .  A
C253        N257   1.426       .  S
C254        H258   1.084       .  S
N255        O265   1.262       .  A
N255        O266   1.262       .  A
N257        O263   1.261       .  A
N257        O264   1.261       .  A
C267        C268   1.400       .  A
C267        C272   1.397       .  A
C267        H277   1.085   1_565  S
C268        C273   1.483       .  S
C268        C269   1.411       .  A
C269        C270   1.402       .  A
C269        N274   1.426       .  S
C270        C271   1.404       .  A
C270        H275   1.084       .  S
C271        C272   1.416       .  A
C272        N276   1.427   1_565  S
C273        C278   1.409       .  A
C273        C282   1.400       .  A
N274        O289   1.262       .  A
N274        O290   1.261       .  A
N276        O287   1.262       .  A
N276        O288   1.262       .  A
C278        C279   1.397       .  A
C278        N283   1.426       .  S
C279        C280   1.408       .  A
C279        H284   1.084       .  S
C280        C281   1.419       .  A
C281        C282   1.399       .  A
C281        N285   1.427   1_565  S
C282        H286   1.085   1_565  S
N283        O293   1.262       .  A
N283        O294   1.261       .  A
N285        O291   1.262       .  A
N285        O292   1.262       .  A
C295        C296   1.399       .  A
C295        C300   1.405       .  A
C295        H305   1.084       .  S
C296        C301   1.485   1_545  S
C296        C297   1.410   1_545  A
C297        C298   1.396       .  A
C297        N302   1.426       .  S
C298        C299   1.404   1_565  A
C298        H303   1.084       .  S
C299        C300   1.420       .  A
C300        N304   1.425       .  S
C301        C306   1.411       .  A
C301        C310   1.398   1_565  A
N302        O317   1.262       .  A
N302        O318   1.261       .  A
N304        O315   1.262       .  A
N304        O316   1.262       .  A
C306        C307   1.400       .  A
C306        N311   1.426       .  S
C307        C308   1.403       .  A
C307        H312   1.084       .  S
C308        C309   1.419   1_565  A
C309        C310   1.404       .  A
C309        N313   1.427       .  S
C310        H314   1.084       .  S
N311        O321   1.262       .  A
N311        O322   1.261       .  A
N313        O319   1.262       .  A
N313        O320   1.262       .  A
O323       Zr335   2.464       .  S
O323        C325   1.295       .  A
O324       Zr361   2.405       .  S
O324        C325   1.281   1_545  A
C325        C621   1.487       .  S
O326       Zr338   2.464       .  S
O326        C328   1.290       .  A
O327       Zr362   2.412   1_556  S
O327        C328   1.287   1_655  A
C328        C453   1.488       .  S
O329       Zr338   2.450       .  S
O329        C331   1.293   1_565  A
O330        C331   1.284       .  A
C331        C574   1.488       .  S
O332       Zr335   2.464       .  S
O332        C334   1.290       .  A
O333        C334   1.288   1_655  A
C334        C509   1.497   1_455  S
Zr335       O336   2.435       .  S
Zr335       O337   2.438       .  S
Zr335       O341   2.369       .  S
Zr335       O342   2.380       .  S
Zr335       O365   2.378   1_455  S
Zr335       O367   2.378   1_565  S
O336        H379   0.989       .  S
O337        H378   0.990       .  S
O337        H382   0.990       .  S
Zr338       O339   2.437       .  S
Zr338       O340   2.435       .  S
Zr338       O366   2.380   1_565  S
Zr338       O368   2.373   1_455  S
O339        H380   0.990       .  S
O339        H383   0.990       .  S
O340        H373   0.990       .  S
O341       Zr361   2.385   1_565  S
O342        H369   0.922       .  S
O343       Zr355   2.432       .  S
O343        C345   1.284   1_545  A
O344        C345   1.290       .  A
C345        C602   1.476       .  S
O346       Zr358   2.431       .  S
O346        C348   1.283       .  A
O347        C348   1.290   1_455  A
C348        C434   1.490       .  S
O349       Zr358   2.446       .  S
O349        C351   1.290   1_545  A
O350       Zr362   2.429   1_556  S
O350        C351   1.285       .  A
C351        C546   1.480       .  S
O352       Zr355   2.428       .  S
O352        C354   1.283   1_655  A
O353       Zr361   2.442       .  S
O353        C354   1.292       .  A
C354        C481   1.491       .  S
Zr355       O356   2.436       .  S
Zr355       O357   2.435       .  S
Zr355       O367   2.376   1_655  S
Zr355       O365   2.375   1_545  S
O356        H376   0.990       .  S
O356        H381   0.990       .  S
O357        H377   0.990       .  S
Zr358       O359   2.438       .  S
Zr358       O360   2.437       .  S
Zr358       O364   2.377       .  S
Zr358       O363   2.370   1_556  S
Zr358       O368   2.366   1_545  S
Zr358       O366   2.376   1_655  S
O359        H375   0.990       .  S
O360        H374   0.990       .  S
O360        H384   0.990       .  S
Zr361       O367   2.391       .  S
Zr362       O363   2.382   1_565  S
Zr362       O368   2.374   1_554  S
O363        H371   0.961       .  S
O366        H370   0.979       .  S
O367        H372   0.975       .  S
C385        C518   1.491       .  S
C385        C386   1.400       .  A
C385        C390   1.405   1_655  A
C386        C387   1.414       .  A
C386        H391   1.079       .  S
C387        C398   1.507       .  S
C387        C388   1.417   1_655  A
C388        C389   1.406       .  A
C388        H392   1.079       .  S
C389        C490   1.497       .  S
C389        C390   1.408       .  A
C390        H393   1.084       .  S
C394        C462   1.479       .  S
C394        C395   1.397       .  A
C394        C399   1.405       .  A
C395        C396   1.399       .  A
C395        H400   1.083       .  S
C396        C425   1.479       .  S
C396        C397   1.409       .  A
C397        C398   1.410       .  A
C397        H401   1.081       .  S
C398        C399   1.411       .  A
C399        H402   1.081       .  S
C403        C593   1.482       .  S
C403        C404   1.395       .  A
C403        C408   1.409       .  A
C404        C405   1.399       .  A
C404        H409   1.084       .  S
C405        C630   1.478       .  S
C405        C406   1.402       .  A
C406        C407   1.413       .  A
C406        H410   1.079       .  S
C407        C416   1.512       .  S
C407        C408   1.415       .  A
C408        H411   1.081       .  S
C412        C537   1.490       .  S
C412        C413   1.399       .  A
C412        C417   1.414       .  A
C413        C414   1.396       .  A
C413        H418   1.081       .  S
C414        C565   1.479       .  S
C414        C415   1.406       .  A
C415        C416   1.410       .  A
C415        H419   1.079       .  S
C416        C417   1.412       .  A
C417        H420   1.080       .  S
C421        C422   1.397       .  A
C421        C426   1.398       .  A
C421        H431   1.084       .  S
C422        C427   1.472       .  S
C422        C423   1.409   1_655  A
C423        C424   1.393       .  A
C423        N428   1.426       .  S
C424        C425   1.400   1_455  A
C424        H429   1.085       .  S
C425        C426   1.416       .  A
C426        N430   1.426       .  S
C427        C432   1.406   1_655  A
C427        C436   1.395       .  A
N428        O443   1.262       .  A
N428        O444   1.261       .  A
N430        O441   1.262       .  A
N430        O442   1.262       .  A
C432        C433   1.395       .  A
C432        N437   1.426       .  S
C433        C434   1.405   1_455  A
C433        H438   1.084       .  S
C434        C435   1.423       .  A
C435        C436   1.397       .  A
C435        N439   1.428       .  S
C436        H440   1.085       .  S
N437        O447   1.262       .  A
N437        O448   1.261       .  A
N439        O445   1.262       .  A
N439        O446   1.262       .  A
C449        C450   1.398   1_455  A
C449        C454   1.401       .  A
C449        H459   1.084       .  S
C450        C455   1.480       .  S
C450        C451   1.412       .  A
C451        C452   1.395       .  A
C451        N456   1.427       .  S
C452        C453   1.404   1_655  A
C452        H457   1.084       .  S
C453        C454   1.417       .  A
C454        N458   1.425       .  S
C455        C460   1.415       .  A
C455        C464   1.398   1_655  A
N456        O471   1.262       .  A
N456        O472   1.262       .  A
N458        O469   1.262       .  A
N458        O470   1.262       .  A
C460        C461   1.395       .  A
C460        N465   1.427       .  S
C461        C462   1.398       .  A
C461        H466   1.085       .  S
C462        C463   1.413   1_655  A
C463        C464   1.399       .  A
C463        N467   1.426       .  S
C464        H468   1.084       .  S
N465        O475   1.262       .  A
N465        O476   1.262       .  A
N467        O473   1.262       .  A
N467        O474   1.262       .  A
C477        C478   1.394   1_655  A
C477        C482   1.396       .  A
C477        H487   1.085       .  S
C478        C483   1.482       .  S
C478        C479   1.413       .  A
C479        C480   1.400       .  A
C479        N484   1.426       .  S
C480        C481   1.404       .  A
C480        H485   1.084       .  S
C481        C482   1.422   1_455  A
C482        N486   1.427       .  S
C483        C488   1.411   1_455  A
C483        C492   1.399       .  A
N484        O499   1.262       .  A
N484        O500   1.262       .  A
N486        O497   1.262       .  A
N486        O498   1.262       .  A
C488        C489   1.394       .  A
C488        N493   1.427       .  S
C489        C490   1.402   1_655  A
C489        H494   1.084       .  S
C490        C491   1.421       .  A
C491        C492   1.405       .  A
C491        N495   1.426       .  S
C492        H496   1.084       .  S
N493        O503   1.262       .  A
N493        O504   1.262       .  A
N495        O501   1.262       .  A
N495        O502   1.262       .  A
C505        C506   1.397   1_455  A
C505        C510   1.400       .  A
C505        H515   1.084       .  S
C506        C511   1.483       .  S
C506        C507   1.412       .  A
C507        C508   1.397       .  A
C507        N512   1.427       .  S
C508        C509   1.408       .  A
C508        H513   1.084       .  S
C509        C510   1.420   1_655  A
C510        N514   1.425       .  S
C511        C516   1.414   1_655  A
C511        C520   1.398       .  A
N512        O527   1.262       .  A
N512        O528   1.262       .  A
N514        O525   1.262       .  A
N514        O526   1.262       .  A
C516        C517   1.396       .  A
C516        N521   1.427       .  S
C517        C518   1.400   1_455  A
C517        H522   1.084       .  S
C518        C519   1.418       .  A
C519        C520   1.402       .  A
C519        N523   1.426       .  S
C520        H524   1.084       .  S
N521        O531   1.262       .  A
N521        O532   1.261       .  A
N523        O529   1.262       .  A
N523        O530   1.261       .  A
C533        C534   1.397       .  A
C533        C538   1.400       .  A
C533        H543   1.084       .  S
C534        C539   1.477       .  S
C534        C535   1.408       .  A
C535        C536   1.393       .  A
C535        N540   1.426   1_565  S
C536        C537   1.402       .  A
C536        H541   1.084   1_565  S
C537        C538   1.421       .  A
C538        N542   1.427       .  S
C539        C544   1.410   1_565  A
C539        C548   1.399       .  A
N540        O555   1.262   1_545  A
N540        O556   1.261       .  A
N542        O553   1.262       .  A
N542        O554   1.262       .  A
C544        C545   1.397       .  A
C544        N549   1.427       .  S
C545        C546   1.401   1_545  A
C545        H550   1.084       .  S
C546        C547   1.416       .  A
C547        C548   1.400       .  A
C547        N551   1.427       .  S
C548        H552   1.084       .  S
N549        O559   1.262       .  A
N549        O560   1.261       .  A
N551        O557   1.262       .  A
N551        O558   1.262       .  A
C561        C562   1.395   1_565  A
C561        C566   1.390       .  A
C561        H571   1.083       .  S
C562        C567   1.482       .  S
C562        C563   1.419       .  A
C563        C564   1.397       .  A
C563        N568   1.428       .  S
C564        C565   1.400   1_545  A
C564        H569   1.084       .  S
C565        C566   1.413       .  A
C566        N570   1.425       .  S
C567        C572   1.418   1_545  A
C567        C576   1.395       .  A
N568        O583   1.262       .  A
N568        O584   1.262       .  A
N570        O581   1.262       .  A
N570        O582   1.261       .  A
C572        C573   1.393       .  A
C572        N577   1.429       .  S
C573        C574   1.402   1_565  A
C573        H578   1.084       .  S
C574        C575   1.420       .  A
C575        C576   1.398       .  A
C575        N579   1.425       .  S
C576        H580   1.083       .  S
N577        O587   1.262       .  A
N577        O588   1.262       .  A
N579        O585   1.262       .  A
N579        O586   1.261       .  A
C589        C590   1.397   1_545  A
C589        C594   1.400       .  A
C589        H599   1.084       .  S
C590        C595   1.477       .  S
C590        C591   1.415       .  A
C591        C592   1.395       .  A
C591        N596   1.427       .  S
C592        C593   1.398       .  A
C592        H597   1.084       .  S
C593        C594   1.415   1_565  A
C594        N598   1.426       .  S
C595        C600   1.414       .  A
C595        C604   1.397   1_565  A
N596        O611   1.262       .  A
N596        O612   1.262       .  A
N598        O609   1.261       .  A
N598        O610   1.262       .  A
C600        C601   1.395       .  A
C600        N605   1.427       .  S
C601        C602   1.400       .  A
C601        H606   1.085       .  S
C602        C603   1.416   1_565  A
C603        C604   1.396       .  A
C603        N607   1.426       .  S
C604        H608   1.084       .  S
N605        O615   1.263   1_565  A
N605        O616   1.261       .  A
N607        O613   1.262       .  A
N607        O614   1.261   1_545  A
C617        C618   1.395   1_545  A
C617        C622   1.400       .  A
C617        H627   1.085       .  S
C618        C623   1.471       .  S
C618        C619   1.407       .  A
C619        C620   1.392       .  A
C619        N624   1.425       .  S
C620        C621   1.401       .  A
C620        H625   1.084       .  S
C621        C622   1.423   1_565  A
C622        N626   1.425       .  S
C623        C628   1.411       .  A
C623        C632   1.395   1_565  A
N624        O639   1.262       .  A
N624        O640   1.261       .  A
N626        O637   1.262       .  A
N626        O638   1.262       .  A
C628        C629   1.397       .  A
C628        N633   1.426       .  S
C629        C630   1.400       .  A
C629        H634   1.084       .  S
C630        C631   1.414   1_565  A
C631        C632   1.394       .  A
C631        N635   1.426       .  S
C632        H636   1.085       .  S
N633        O643   1.262       .  A
N633        O644   1.262       .  A
N635        O641   1.262       .  A
N635        O642   1.262       .  A
