geometry optimzed in LAMMPS
_audit_creation_date              2020-12-01 
_audit_creation_method            'lammps2cif' 
_symmetry_space_group_name_H-M    'P1' 
_symmetry_Int_Tables_number       1 
_symmetry_cell_setting            triclinic 
loop_ 
_symmetry_equiv_pos_as_xyz 
  x,y,z 
_cell_length_a                    41.62202832 
_cell_length_b                    35.93724409942858 
_cell_length_c                    28.151196098729375 
_cell_angle_alpha                 99.14448493811334 
_cell_angle_beta                  90.14248957133435 
_cell_angle_gamma                 125.70635401145728 
loop_ 
_atom_site_label 
_atom_site_type_symbol 
_atom_site_fract_x 
_atom_site_fract_y 
_atom_site_fract_z 
_atom_site_charge 
C1          C  0.30915458  0.16213744  0.03359455     0.80100
N2          N  0.33192997  0.20736132  0.02808148    -0.78200
C3          C  0.37159207  0.23031360  0.02577951     0.82500
N4          N  0.38893085  0.20888582  0.03131831    -0.78200
C5          C  0.36679572  0.16428854  0.03788609     0.82600
N6          N  0.32684339  0.14074676  0.03899765    -0.79900
C7          C  0.31090881  0.16940916  0.32167968     0.80100
N8          N  0.32991248  0.14874461  0.32124673    -0.78200
C9          C  0.36756192  0.17051556  0.30867114     0.82500
N10         N  0.38613111  0.21298471  0.29669708    -0.78200
C11         C  0.36787185  0.23432530  0.29660929     0.82600
N12         N  0.33043204  0.21232428  0.30957783    -0.79900
C13         C  0.22448994  0.37926285  0.09186555     0.80100
N14         N  0.20788762  0.40231195  0.09046906    -0.78200
C15         C  0.16804597  0.37951193  0.09142606     0.82500
N16         N  0.14481320  0.33345220  0.09339088    -0.78200
C17         C  0.16124491  0.31042720  0.09555219     0.82600
N18         N  0.20101558  0.33328310  0.09438888    -0.79900
C19         C  0.22217186  0.38072423  0.35165176     0.80100
N20         N  0.20564262  0.40408359  0.35063356    -0.78200
C21         C  0.16604865  0.38203982  0.35451236     0.82500
N22         N  0.14310441  0.33675546  0.35922478    -0.78200
C23         C  0.15933271  0.31344424  0.36078829     0.82600
N24         N  0.19867750  0.33533556  0.35645789    -0.79900
C25         C  0.14306381  0.07528065  0.06151638     0.76300
Tb26       Tb  0.47011358  0.02304431  0.07947095     1.80700
O27         O  0.13018973  0.08492854  0.09827839    -0.51700
O28         O  0.08921533  0.49267994  0.11197617    -0.59100
C29         C  0.06126720  0.11210075  0.08625084     0.92100
O30         O  0.46694286  0.08722504  0.09838935    -0.58700
Tb31       Tb  0.06199430  0.02191819  0.07726199     1.78100
O32         O  0.40431219  0.45844673  0.04682422    -0.59200
O33         O  0.00718085  0.45300785  0.03118017    -0.78000
O34         O  0.07252656  0.09312765  0.10912720    -0.77300
O35         O  0.04653761  0.02913540  0.49986164    -0.62600
C36         C  0.47597151  0.43004058  0.05516551     0.91700
O37         O  0.99919122  0.03967415  0.15629315    -0.74500
C38         C  0.39062530  0.97347275  0.09812882     0.75200
C39         C  0.08844052  0.46610523  0.07615143     0.76200
O40         O  0.11522564  0.04076670  0.03127792    -0.59800
O41         O  0.07348573  0.46606050  0.03719238    -0.51700
O42         O  0.98080577  0.00371339  0.99654669    -0.77800
O43         O  0.03340317  0.00917257  0.15047461    -0.61800
C44         C  0.01542643  0.02329019  0.17486113     0.90000
C45         C  0.01389397  0.01487714  0.47598419     0.91200
C46         C  0.44471972  0.07683150  0.06031005     0.75500
O47         O  0.41958406  0.00344637  0.13013660    -0.51100
O48         O  0.43933949  0.53864479  0.02536870    -0.52200
O49         O  0.46592550  0.45200111  0.08277543    -0.65100
O50         O  0.02699575  0.08904023  0.06286010    -0.66200
C51         C  0.14309669  0.08326411  0.32822004     0.76300
Tb52       Tb  0.46917614  0.02247135  0.33099454     1.82700
O53         O  0.12489731  0.08833349  0.36159397    -0.51700
O54         O  0.07634813  0.48629466  0.36827539    -0.59100
C55         C  0.05905314  0.11265997  0.33764861     0.92100
O56         O  0.46739200  0.08754875  0.35646331    -0.58700
Tb57       Tb  0.06058374  0.02299691  0.32663686     1.78100
O58         O  0.40229116  0.47336046  0.29455463    -0.59200
O59         O  0.00183991  0.45202371  0.31790046    -0.78000
O60         O  0.06812708  0.08920669  0.31101615    -0.77300
O61         O  0.03403012  0.00901187  0.24605714    -0.62600
C62         C  0.46904661  0.42955086  0.29032869     0.91700
O63         O  0.98169572  0.00335957  0.39908887    -0.74500
C64         C  0.38965348  0.96614137  0.34924185     0.75200
C65         C  0.08895380  0.47160349  0.33520729     0.76200
O66         O  0.12010502  0.05127105  0.29248303    -0.59800
O67         O  0.08556972  0.48116090  0.29497255    -0.51700
O68         O  0.99341578  0.03117867  0.25128938    -0.77800
O69         O  0.04706764  0.03715229  0.40601491    -0.61800
C70         C  0.01408221  0.01822687  0.42391303     0.90000
C71         C  0.01415220  0.02098117  0.22716067     0.91200
C72         C  0.44686639  0.08186788  0.31932325     0.75500
O73         O  0.41848372  0.98851345  0.38241005    -0.51100
O74         O  0.44340397  0.55118694  0.28001778    -0.52200
O75         O  0.45872825  0.45331602  0.27610465    -0.65100
O76         O  0.03012982  0.09259789  0.36240407    -0.66200
C77         C  0.08421750  0.19112325  0.38387407    -0.05900
C78         C  0.08348449  0.16404377  0.34131588     0.00000
C79         C  0.10622343  0.18678044  0.30416022    -0.08600
C80         C  0.13169140  0.23580193  0.31351678    -0.05900
C81         C  0.13312825  0.26248037  0.35656343     0.00000
C82         C  0.10831508  0.24018485  0.39197211    -0.08500
C83         C  0.10779998  0.26789010  0.43831938     0.61900
H84         H  0.06556713  0.17347552  0.41103588     0.12600
H85         H  0.15001648  0.25408157  0.28636133     0.12600
C86         C  0.10172489  0.16055005  0.25346202     0.62200
F87         F  0.08311346  0.23913428  0.46900384    -0.23000
F88         F  0.09409973  0.29289229  0.42748643    -0.20300
F89         F  0.14585993  0.29851473  0.46267922    -0.20000
F90         F  0.06198994  0.13180323  0.23458043    -0.20100
F91         F  0.11584204  0.13411729  0.25417001    -0.20400
F92         F  0.12281849  0.19080992  0.22230973    -0.23100
C93         C  0.32540640  0.44932265  0.30880504    -0.05900
C94         C  0.34672737  0.44250484  0.34056353     0.00000
C95         C  0.32678037  0.41401297  0.37495526    -0.08600
C96         C  0.28634629  0.39546989  0.37798281    -0.05900
C97         C  0.26521374  0.40342948  0.34695521     0.00000
C98         C  0.28477282  0.42923795  0.31028971    -0.08500
C99         C  0.26267135  0.43275534  0.27039701     0.61900
H100        H  0.34202557  0.97475370  0.30128166     0.12600
H101        H  0.27078485  0.37431827  0.40470831     0.12600
C102        C  0.34733884  0.40138797  0.40652142     0.62200
F103        F  0.28825944  0.96491142  0.26014404    -0.23000
F104        F  0.24932763  0.45865814  0.28940690    -0.20300
F105        F  0.23092795  0.38828896  0.24798911    -0.20000
F106        F  0.37640530  0.44038502  0.43987010    -0.20100
F107        F  0.36474470  0.38429927  0.37794116    -0.20400
F108        F  0.32079115  0.36737112  0.43163101    -0.23100
C109        C  0.11426433  0.42702451  0.30054021    -0.05900
C110        C  0.10738416  0.44735586  0.34227449     0.00000
C111        C  0.11878464  0.44447837  0.38850301    -0.08600
C112        C  0.13944927  0.42459927  0.39116551    -0.05900
C113        C  0.14677450  0.40524894  0.34932469     0.00000
C114        C  0.13183545  0.40385224  0.30348327    -0.08500
C115        C  0.13135645  0.37451514  0.25835832     0.61900
H116        H  0.10425193  0.42762881  0.26551738     0.12600
H117        H  0.14934608  0.42306613  0.42585268     0.12600
C118        C  0.14525114  0.00342693  0.43537865     0.62200
F119        F  0.11601080  0.37807169  0.21702232    -0.23000
F120        F  0.10790976  0.32832213  0.26315583    -0.20300
F121        F  0.16944234  0.38837512  0.25278102    -0.20000
F122        F  0.11106036  0.99082104  0.45611847    -0.20100
F123        F  0.16015270  0.04331567  0.41706930    -0.20400
F124        F  0.17346509  0.01368009  0.47147796    -0.23100
C125        C  0.08890761  0.19179060  0.12854076    -0.05900
C126        C  0.08776554  0.16267020  0.08817909     0.00000
C127        C  0.10956689  0.18196418  0.04946061    -0.08600
C128        C  0.13440965  0.23071902  0.05421145    -0.05900
C129        C  0.13569002  0.25992369  0.09467637     0.00000
C130        C  0.11231013  0.24044472  0.13226331    -0.08500
C131        C  0.11228467  0.27083351  0.17606273     0.61900
H132        H  0.07041421  0.17586377  0.15652820     0.12600
H133        H  0.15204023  0.24645112  0.02554704     0.12600
C134        C  0.10544602  0.15127109  0.00273840     0.62200
F135        F  0.09057440  0.24523574  0.21046768    -0.23000
F136        F  0.09543914  0.29158128  0.16187932    -0.20300
F137        F  0.15096523  0.30495598  0.19730986    -0.20000
F138        F  0.06642576  0.12398346  0.98149804    -0.20100
F139        F  0.10354300  0.11805052  0.50118017    -0.20400
F140        F  0.11766741  0.17573014  0.46472395    -0.23100
C141        C  0.32462048  0.95061750  0.06823400    -0.05900
C142        C  0.34909073  0.44151957  0.09009662     0.00000
C143        C  0.32869459  0.41790124  0.12751296    -0.08600
C144        C  0.28777215  0.39768528  0.12637196    -0.05900
C145        C  0.26777394  0.40348809  0.09130998     0.00000
C146        C  0.28896100  0.42988878  0.05576336    -0.08500
C147        C  0.25937196  0.92962071  0.03037260     0.61900
H148        H  0.33814951  0.96515178  0.03690770     0.12600
H149        H  0.27116832  0.37812962  0.15375749     0.12600
C150        C  0.34992738  0.41445334  0.16847061     0.62200
F151        F  0.28113421  0.94746458  0.99244530    -0.23000
F152        F  0.24585870  0.95590001  0.04717946    -0.20300
F153        F  0.23501609  0.39951964  0.99500418    -0.20000
F154        F  0.37692869  0.45851582  0.19632089    -0.20100
F155        F  0.36985315  0.39632772  0.14993806    -0.20400
F156        F  0.32368134  0.38588268  0.19824377    -0.23100
C157        C  0.11646613  0.38153495  0.05209595    -0.05900
C158        C  0.14917668  0.40328312  0.08760639     0.00000
C159        C  0.16134795  0.44498293  0.11969082    -0.08600
C160        C  0.13944763  0.46297393  0.11557646    -0.05900
C161        C  0.10709929  0.44179073  0.07942957     0.00000
C162        C  0.09549270  0.40048189  0.04668861    -0.08500
C163        C  0.06122018  0.37615060  0.00640537     0.61900
H164        H  0.10794122  0.34975541  0.02783765     0.12600
H165        H  0.14840217  0.49494243  0.13979247     0.12600
C166        C  0.19695189  0.47026267  0.15827475     0.62200
F167        F  0.02889276  0.31087294  0.51861487    -0.23000
F168        F  0.07162607  0.40344656  0.97180505    -0.20300
F169        F  0.01382945  0.35720564  0.55726396    -0.20000
F170        F  0.23161619  0.48833532  0.13665772    -0.20100
F171        F  0.19309580  0.43975836  0.18598703    -0.20400
F172        F  0.20040507  0.50682013  0.18900741    -0.23100
C173        C  0.39914441  0.08994017  0.27704694    -0.05900
C174        C  0.43029193  0.10873136  0.31442203     0.00000
C175        C  0.44354501  0.15140045  0.34600536    -0.08600
C176        C  0.42159571  0.16970303  0.34323932    -0.05900
C177        C  0.38883787  0.14886111  0.30804246     0.00000
C178        C  0.37942161  0.11053760  0.27192617    -0.08500
C179        C  0.35083391  0.09162888  0.22608568     0.61900
H180        H  0.38961809  0.55720405  0.25136761     0.12600
H181        H  0.43000557  0.20081730  0.36869450     0.12600
C182        C  0.48158817  0.17899872  0.38082529     0.62200
F183        F  0.36238640  0.58031555  0.18798653    -0.23000
F184        F  0.33525699  0.11617111  0.22210879    -0.20300
F185        F  0.31965749  0.04542224  0.22467266    -0.20000
F186        F  0.51215987  0.18353903  0.35652885    -0.20100
F187        F  0.47628443  0.15661158  0.41874268    -0.20400
F188        F  0.49304498  0.22356137  0.40011392    -0.23100
C189        C  0.43084384  0.30385929  0.27879501    -0.05900
C190        C  0.39044857  0.28228289  0.28492303     0.00000
C191        C  0.37437858  0.30756797  0.27986405    -0.08600
C192        C  0.40085966  0.35545499  0.27804544    -0.05900
C193        C  0.44191341  0.37774098  0.27777992     0.00000
C194        C  0.45616769  0.35011718  0.27272726    -0.08500
C195        C  0.49708536  0.36672717  0.25918824     0.61900
H196        H  0.44338177  0.28456018  0.27845811     0.12600
H197        H  0.38985700  0.37645600  0.27971220     0.12600
C198        C  0.33021428  0.28578777  0.27747097     0.62200
F199        F  0.49344808  0.33416744  0.22143232    -0.23000
F200        F  0.02100627  0.37669536  0.30480837    -0.20300
F201        F  0.01711250  0.41038472  0.24572558    -0.20000
F202        F  0.31825172  0.27919667  0.32288489    -0.20100
F203        F  0.30866070  0.24362931  0.24473037    -0.20400
F204        F  0.32154980  0.31419518  0.26238174    -0.23100
C205        C  0.25570747  0.17394336  0.34660337    -0.05900
C206        C  0.26849076  0.14549955  0.33224627     0.00000
C207        C  0.23961490  0.09608188  0.32404443    -0.08600
C208        C  0.19908461  0.07791115  0.32302186    -0.05900
C209        C  0.18653406  0.10679971  0.33259632     0.00000
C210        C  0.21514770  0.15555329  0.34660905    -0.08500
C211        C  0.20296134  0.18818459  0.35773201     0.61900
H212        H  0.27784583  0.21120628  0.35675234     0.12600
H213        H  0.17646342  0.04043611  0.31458548     0.12600
C214        C  0.25057338  0.06212154  0.31674141     0.62200
F215        F  0.23564156  0.23453689  0.37029796    -0.23000
F216        F  0.18002892  0.17768555  0.39568434    -0.20300
F217        F  0.18110102  0.18335690  0.31727729    -0.20000
F218        F  0.27611050  0.07211388  0.35618664    -0.20100
F219        F  0.26857189  0.06531863  0.27493006    -0.20400
F220        F  0.21746039  0.01620818  0.31263554    -0.23100
C221        C  0.42838934  0.13167294  0.09225500    -0.05900
C222        C  0.42675259  0.10137944  0.05222417     0.00000
C223        C  0.41113575  0.09547552  0.51115381    -0.08600
C224        C  0.39120415  0.11625230  0.51025901    -0.05900
C225        C  0.38677366  0.14252627  0.04477828     0.00000
C226        C  0.40888269  0.15276773  0.08916586    -0.08500
C227        C  0.41129739  0.18538185  0.13300429     0.61900
H228        H  0.44445743  0.13809966  0.12641426     0.12600
H229        H  0.37482879  0.11115590  0.47694236     0.12600
C230        C  0.40180882  0.56317023  0.45677505     0.62200
F231        F  0.43290569  0.18922395  0.17334005    -0.23000
F232        F  0.37333442  0.16870815  0.14421298    -0.20300
F233        F  0.42966474  0.22956496  0.12299020    -0.20000
F234        F  0.37694240  0.51681526  0.46064976    -0.20100
F235        F  0.43888575  0.57472773  0.44745766    -0.20400
F236        F  0.38604382  0.56865220  0.41732836    -0.23100
C237        C  0.43756312  0.35267409  0.00027533    -0.05900
C238        C  0.45069606  0.37876231  0.04792148     0.00000
C239        C  0.43801712  0.35551738  0.08761880    -0.08600
C240        C  0.41092143  0.30678237  0.07807362    -0.05900
C241        C  0.39723723  0.28100618  0.03078297     0.00000
C242        C  0.40806911  0.30052655  0.49463732    -0.08500
C243        C  0.39166479  0.27002654  0.44436632     0.61900
H244        H  0.43946650  0.36617790  0.46982800     0.12600
H245        H  0.40052666  0.28798142  0.10763644     0.12600
C246        C  0.45459838  0.38126973  0.13976969     0.62200
F247        F  0.40391891  0.29641244  0.40856724    -0.23000
F248        F  0.35045438  0.24191646  0.43982793    -0.20300
F249        F  0.40460281  0.24202143  0.43713973    -0.20000
F250        F  0.44274146  0.40970287  0.15378552    -0.20100
F251        F  0.49575019  0.40800018  0.14448467    -0.20400
F252        F  0.44131924  0.35044707  0.17109512    -0.23100
C253        C  0.19659664  0.07365881  0.02535335    -0.05900
C254        C  0.18609703  0.09941580  0.05511831     0.00000
C255        C  0.21674619  0.14619795  0.07800386    -0.08600
C256        C  0.25646722  0.16480585  0.07022266    -0.05900
C257        C  0.26650879  0.13897098  0.03975125     0.00000
C258        C  0.23595542  0.09292702  0.01566887    -0.08500
C259        C  0.24441159  0.06501147  0.97830388     0.61900
H260        H  0.17359197  0.03735118  0.01032793     0.12600
H261        H  0.28033848  0.20014507  0.08808206     0.12600
C262        C  0.20799078  0.17711956  0.10929450     0.62200
F263        F  0.25254876  0.59340268  0.16269411    -0.23000
F264        F  0.26557355  0.05267694  0.00065268    -0.20300
F265        F  0.29017836  0.09571290  0.62509131    -0.20000
F266        F  0.19132612  0.15888500  0.14963525    -0.20100
F267        F  0.18207291  0.18028661  0.08257674    -0.20400
F268        F  0.24216477  0.22197885  0.12551388    -0.23100
C269        C  0.31413128  0.16423175  0.55065265     0.80100
N270        N  0.33571673  0.20809508  0.54139045    -0.78200
C271        C  0.37448573  0.23024056  0.53445827     0.82500
N272        N  0.39234822  0.20907993  0.53816703    -0.78200
C273        C  0.37122576  0.16529833  0.54739369     0.82600
N274        N  0.33196215  0.14261233  0.55360816    -0.79900
C275        C  0.31105154  0.16635998  0.82987349     0.80100
N276        N  0.33092912  0.14674028  0.82795760    -0.78200
C277        C  0.36858603  0.17016019  0.81531854     0.82500
N278        N  0.38618195  0.21303933  0.80473919    -0.78200
C279        C  0.36682762  0.23316092  0.80594030     0.82600
N280        N  0.32941995  0.20957741  0.81906603    -0.79900
C281        C  0.22139130  0.37875483  0.59642184     0.80100
N282        N  0.20293403  0.39982673  0.59611401    -0.78200
C283        C  0.16292161  0.37501760  0.59730628     0.82500
N284        N  0.14149519  0.32875780  0.59805991    -0.78200
C285        C  0.15985485  0.30775432  0.59893772     0.82600
N286        N  0.19972670  0.33266741  0.59786269    -0.79900
C287        C  0.22274390  0.38603951  0.86439516     0.80100
N288        N  0.20525698  0.40800674  0.86122904    -0.78200
C289        C  0.16512719  0.38408629  0.86106137     0.82500
N290        N  0.14267724  0.33843313  0.86462873    -0.78200
C291        C  0.16008071  0.31671691  0.86871771     0.82600
N292        N  0.19988832  0.34040850  0.86786458    -0.79900
C293        C  0.14733518  0.08040632  0.56801494     0.76300
Tb294      Tb  0.47158946  0.01977156  0.57842677     1.80700
O295        O  0.13263072  0.07196455  0.60729454    -0.51700
O296        O  0.08096740  0.48565004  0.61529199    -0.59100
C297        C  0.06262525  0.10947313  0.58639980     0.92100
O298        O  0.46910675  0.08401022  0.60106402    -0.58700
Tb299      Tb  0.06471509  0.02092102  0.57518987     1.78100
O300        O  0.40062362  0.46263615  0.54464744    -0.59200
O301        O  0.99937036  0.44704811  0.52851792    -0.78000
O302        O  0.07330625  0.09039137  0.60990037    -0.77300
O303        O  0.04533727  0.03150047  0.00229860    -0.62600
C304        C  0.46940173  0.42878680  0.55225859     0.91700
O305        O  0.00056031  0.03706957  0.65585961    -0.74500
C306        C  0.39054911  0.96504363  0.58865430     0.75200
C307        C  0.07967519  0.45725707  0.58119069     0.76200
O308        O  0.12086333  0.06166750  0.53238592    -0.59800
O309        O  0.06525464  0.45569534  0.54095292    -0.51700
O310        O  0.98153502  0.99854381  0.49520483    -0.77800
O311        O  0.03994207  0.01327366  0.65170828    -0.61800
C312        C  0.01994044  0.02487452  0.67553841     0.90000
C313        C  0.01332913  0.01849980  0.97797041     0.91200
C314        C  0.44813149  0.07590666  0.56276778     0.75500
O315        O  0.41712308  0.99510070  0.62291295    -0.51100
O316        O  0.43708820  0.54107234  0.52340791    -0.52200
O317        O  0.45781834  0.45022545  0.57754162    -0.65100
O318        O  0.02929859  0.08583148  0.56073723    -0.66200
C319        C  0.14565269  0.08336473  0.84337465     0.76300
Tb320      Tb  0.47132862  0.02483382  0.83213761     1.82700
O321        O  0.12545780  0.08398950  0.87660570    -0.51700
O322        O  0.07780588  0.49043868  0.86973605    -0.59100
C323        C  0.06273274  0.11557847  0.84221348     0.92100
O324        O  0.47081540  0.09022670  0.86091365    -0.58700
Tb325      Tb  0.06256728  0.02528440  0.83079482     1.78100
O326        O  0.39856935  0.46983516  0.79905577    -0.59200
O327        O  0.99766254  0.44764755  0.81923706    -0.78000
O328        O  0.07131389  0.09192960  0.81497625    -0.77300
O329        O  0.03994968  0.01397025  0.74878729    -0.62600
C330        C  0.46502579  0.42804547  0.79471425     0.91700
O331        O  0.98251834  0.00486073  0.89951480    -0.74500
C332        C  0.39030866  0.96978507  0.84650906     0.75200
C333        C  0.08851128  0.47283563  0.83708652     0.76200
O334        O  0.12473293  0.05782270  0.80364242    -0.59800
O335        O  0.08097413  0.47628628  0.79514409    -0.51700
O336        O  0.99695662  0.03254229  0.75144829    -0.77800
O337        O  0.04814499  0.04086610  0.90917261    -0.61800
C338        C  0.01461489  0.02125392  0.92586595     0.90000
C339        C  0.01901729  0.02384513  0.72841100     0.91200
C340        C  0.45117027  0.08600005  0.82368732     0.75500
O341        O  0.41812906  0.98816201  0.88044198    -0.51100
O342        O  0.43867865  0.54847032  0.78093153    -0.52200
O343        O  0.45396944  0.45096512  0.78007042    -0.65100
O344        O  0.03221189  0.09508761  0.86449908    -0.66200
C345        C  0.08737051  0.19350347  0.89032521    -0.05900
C346        C  0.08869008  0.16740361  0.84833998     0.00000
C347        C  0.11444169  0.19144268  0.81367928    -0.08600
C348        C  0.13764414  0.24039153  0.82287199    -0.05900
C349        C  0.13550160  0.26581817  0.86413696     0.00000
C350        C  0.11050375  0.24258730  0.89886416    -0.08500
C351        C  0.10938472  0.26975045  0.94518842     0.61900
H352        H  0.06802768  0.17515421  0.91667691     0.12600
H353        H  0.15749974  0.25959792  0.79726987     0.12600
C354        C  0.11700221  0.16652490  0.76629868     0.62200
F355        F  0.08488924  0.24061603  0.97566607    -0.23000
F356        F  0.09522148  0.29427606  0.93430013    -0.20300
F357        F  0.14739690  0.30088130  0.96972588    -0.20000
F358        F  0.07940432  0.13478567  0.74093180    -0.20100
F359        F  0.13323575  0.14369874  0.77547226    -0.20400
F360        F  0.14091762  0.19725721  0.73671012    -0.23100
C361        C  0.32398545  0.45182206  0.81798173    -0.05900
C362        C  0.34528661  0.44377049  0.84824238     0.00000
C363        C  0.32621323  0.41651898  0.88384462    -0.08600
C364        C  0.28663462  0.40023602  0.88932424    -0.05900
C365        C  0.26556328  0.40920827  0.85963555     0.00000
C366        C  0.28413480  0.43417319  0.82220052    -0.08500
C367        C  0.26178091  0.44024325  0.78510350     0.61900
H368        H  0.34142284  0.97328995  0.79284233     0.12600
H369        H  0.27143355  0.37944397  0.91644150     0.12600
C370        C  0.34627470  0.40195744  0.91346000     0.62200
F371        F  0.28617810  0.95284280  0.74317652    -0.23000
F372        F  0.25315264  0.47017517  0.80702219    -0.20300
F373        F  0.22685584  0.39737929  0.76505050    -0.20000
F374        F  0.37878188  0.44040637  0.94367892    -0.20100
F375        F  0.35892464  0.38014799  0.88276042    -0.20400
F376        F  0.32056416  0.37106860  0.94189402    -0.23100
C377        C  0.10283608  0.41640673  0.80774128    -0.05900
C378        C  0.10805301  0.45044484  0.84586126     0.00000
C379        C  0.13313305  0.46355893  0.88896588    -0.08600
C380        C  0.15158779  0.44122202  0.89232459    -0.05900
C381        C  0.14555476  0.40661412  0.85439667     0.00000
C382        C  0.12083184  0.39383774  0.81136637    -0.08500
C383        C  0.11441983  0.35769908  0.76864560     0.61900
H384        H  0.08442003  0.40752608  0.77493356     0.12600
H385        H  0.17075810  0.45040074  0.92453548     0.12600
C386        C  0.11002787  0.96076840  0.93788884     0.62200
F387        F  0.09025442  0.35183498  0.72990149    -0.23000
F388        F  0.09642490  0.31487651  0.78196047    -0.20300
F389        F  0.15073867  0.37189426  0.75322819    -0.20000
F390        F  0.06940142  0.93700441  0.93900972    -0.20100
F391        F  0.12761831  0.00781776  0.94102717    -0.20400
F392        F  0.12499527  0.95516298  0.97796800    -0.23100
C393        C  0.09663331  0.18925020  0.63379094    -0.05900
C394        C  0.08890384  0.16018025  0.58918869     0.00000
C395        C  0.10476081  0.17979994  0.54786041    -0.08600
C396        C  0.12945597  0.22856284  0.55320468    -0.05900
C397        C  0.13622651  0.25743130  0.59740705     0.00000
C398        C  0.11940412  0.23794923  0.63828615    -0.08500
C399        C  0.12504101  0.26868612  0.68580749     0.61900
H400        H  0.08332621  0.17331475  0.66455562     0.12600
H401        H  0.14253857  0.24460374  0.52242172     0.12600
C402        C  0.09527052  0.14954824  0.49832848     0.62200
F403        F  0.10657475  0.24306032  0.72137883    -0.23000
F404        F  0.10863555  0.29180618  0.67896322    -0.20300
F405        F  0.16525188  0.30100561  0.70180321    -0.20000
F406        F  0.05538612  0.12553736  0.48194492    -0.20100
F407        F  0.11589759  0.12288676  0.01216141    -0.20400
F408        F  0.12949837  0.17730221  0.96994907    -0.23100
C409        C  0.32663599  0.94589852  0.55652597    -0.05900
C410        C  0.34605146  0.44559670  0.58970537     0.00000
C411        C  0.32824843  0.42620074  0.63042581    -0.08600
C412        C  0.28732576  0.40513221  0.63148020    -0.05900
C413        C  0.26459684  0.40491501  0.59438276     0.00000
C414        C  0.28273764  0.42589400  0.55458695    -0.08500
C415        C  0.26480150  0.93321250  0.51925881     0.61900
H416        H  0.34268244  0.96574224  0.52910589     0.12600
H417        H  0.27268384  0.38886575  0.66153324     0.12600
C418        C  0.35199670  0.42679566  0.67189661     0.62200
F419        F  0.28977331  0.95778328  0.48628618    -0.23000
F420        F  0.25164599  0.95844523  0.54126410    -0.20300
F421        F  0.22678172  0.38256787  0.49405644    -0.20000
F422        F  0.37977772  0.47230956  0.69607018    -0.20100
F423        F  0.37130013  0.40762082  0.65407481    -0.20400
F424        F  0.32792810  0.40133712  0.70503431    -0.23100
C425        C  0.10442106  0.36986683  0.56698757    -0.05900
C426        C  0.14191615  0.39680429  0.59498022     0.00000
C427        C  0.15724589  0.44234923  0.62074419    -0.08600
C428        C  0.13471873  0.45950228  0.61645768    -0.05900
C429        C  0.09810853  0.43328473  0.58705352     0.00000
C430        C  0.08221239  0.38741607  0.56226014    -0.08500
C431        C  0.04191714  0.35683246  0.53159861     0.61900
H432        H  0.09297976  0.33507537  0.54761577     0.12600
H433        H  0.14641683  0.49469375  0.63473325     0.12600
C434        C  0.19685524  0.47299276  0.65295495     0.62200
F435        F  0.05168693  0.33323853  0.98361961    -0.23000
F436        F  0.04434947  0.37325032  0.48964492    -0.20300
F437        F  0.02760275  0.36860911  0.02506307    -0.20000
F438        F  0.22781382  0.48769555  0.62480767    -0.20100
F439        F  0.19836383  0.44840951  0.68496816    -0.20400
F440        F  0.20237530  0.51244512  0.67990051    -0.23100
C441        C  0.40041220  0.09023859  0.78545751    -0.05900
C442        C  0.43365977  0.11175692  0.82030127     0.00000
C443        C  0.44747478  0.15515791  0.85061332    -0.08600
C444        C  0.42528080  0.17306964  0.84746525    -0.05900
C445        C  0.39109778  0.15015428  0.81400415     0.00000
C446        C  0.37997193  0.10973145  0.78031350    -0.08500
C447        C  0.34789093  0.08658297  0.73755572     0.61900
H448        H  0.38720314  0.55703418  0.74818450     0.12600
H449        H  0.43425300  0.20506483  0.87161391     0.12600
C450        C  0.48586609  0.18339395  0.88483841     0.62200
F451        F  0.36661024  0.58951541  0.68431197    -0.23000
F452        F  0.33680715  0.11443939  0.72819008    -0.20300
F453        F  0.31486019  0.04501738  0.74643908    -0.20000
F454        F  0.51623304  0.18813836  0.85993842    -0.20100
F455        F  0.48130136  0.16135160  0.92291811    -0.20400
F456        F  0.49701662  0.22787261  0.90396156    -0.23100
C457        C  0.42710094  0.30217317  0.78269736    -0.05900
C458        C  0.38797542  0.28118085  0.79462615     0.00000
C459        C  0.37178363  0.30706474  0.79553710    -0.08600
C460        C  0.39739395  0.35455876  0.79157797    -0.05900
C461        C  0.43760077  0.37619737  0.78489441     0.00000
C462        C  0.45146327  0.34829851  0.77588459    -0.08500
C463        C  0.49121907  0.36471730  0.75812387     0.61900
H464        H  0.43940963  0.28249508  0.77840978     0.12600
H465        H  0.38673188  0.37595854  0.79653117     0.12600
C466        C  0.32850066  0.28626729  0.80191317     0.62200
F467        F  0.48557312  0.33197394  0.71895301    -0.23000
F468        F  0.01720832  0.38334803  0.81941761    -0.20300
F469        F  0.01324814  0.40344646  0.74824286    -0.20000
F470        F  0.32169546  0.27831051  0.84850089    -0.20100
F471        F  0.30356352  0.24493326  0.76864228    -0.20400
F472        F  0.31870834  0.31587294  0.79449955    -0.23100
C473        C  0.25849197  0.16914797  0.86759573    -0.05900
C474        C  0.26937745  0.14159069  0.84241488     0.00000
C475        C  0.23934148  0.09304256  0.82542497    -0.08600
C476        C  0.19948092  0.07556934  0.82957041    -0.05900
C477        C  0.18858876  0.10437427  0.84986463     0.00000
C478        C  0.21839035  0.15136834  0.87149892    -0.08500
C479        C  0.20783086  0.18296256  0.89609397     0.61900
H480        H  0.28170874  0.20550511  0.88266238     0.12600
H481        H  0.17593701  0.03908921  0.81494506     0.12600
C482        C  0.24824169  0.05995303  0.80018427     0.62200
F483        F  0.18709120  0.16539895  0.93468111    -0.23000
F484        F  0.18445756  0.18524136  0.86343612    -0.20300
F485        F  0.24140702  0.22796234  0.91362897    -0.20000
F486        F  0.27324729  0.05857414  0.83105685    -0.20100
F487        F  0.26587961  0.07491253  0.75916130    -0.20400
F488        F  0.21407852  0.01465471  0.78606546    -0.23100
C489        C  0.43328195  0.13136385  0.59703885    -0.05900
C490        C  0.43127771  0.10174590  0.55603845     0.00000
C491        C  0.40594857  0.09331722  0.00702582    -0.08600
C492        C  0.38598315  0.11381162  0.00452113    -0.05900
C493        C  0.39169449  0.14364475  0.55185347     0.00000
C494        C  0.41419099  0.15303644  0.59550369    -0.08500
C495        C  0.41771964  0.18564132  0.64016896     0.61900
H496        H  0.44927416  0.13674141  0.63080540     0.12600
H497        H  0.36932935  0.10750938  0.97088259     0.12600
C498        C  0.40186448  0.55928035  0.95968028     0.62200
F499        F  0.44112585  0.19022294  0.67893132    -0.23000
F500        F  0.38031997  0.16845572  0.65381492    -0.20300
F501        F  0.43481500  0.22958469  0.63007243    -0.20000
F502        F  0.37812070  0.51316451  0.96421106    -0.20100
F503        F  0.43910988  0.57190937  0.94967448    -0.20400
F504        F  0.38473742  0.56327052  0.92037093    -0.23100
C505        C  0.43217489  0.34960291  0.50102890    -0.05900
C506        C  0.44618895  0.37793143  0.54765226     0.00000
C507        C  0.43698644  0.35724508  0.58913469    -0.08600
C508        C  0.41347038  0.30856119  0.58242410    -0.05900
C509        C  0.39906533  0.28046655  0.53625571     0.00000
C510        C  0.41081554  0.30357099  0.99102538    -0.08500
C511        C  0.39671464  0.27572186  0.93958141     0.61900
H512        H  0.44782091  0.37110238  0.97046354     0.12600
H513        H  0.40604699  0.29163873  0.61339820     0.12600
C514        C  0.45354883  0.38592811  0.64028409     0.62200
F515        F  0.41308334  0.30446258  0.90603074    -0.23000
F516        F  0.35569463  0.24994074  0.93121736    -0.20300
F517        F  0.40754054  0.24563372  0.93284193    -0.20000
F518        F  0.44022161  0.41317210  0.65152128    -0.20100
F519        F  0.49467772  0.41405438  0.64442364    -0.20400
F520        F  0.44169016  0.35772215  0.67414287    -0.23100
C521        C  0.21304715  0.10187318  0.59904534    -0.05900
C522        C  0.19073343  0.10508704  0.56436913     0.00000
C523        C  0.21026559  0.13022390  0.52733360    -0.08600
C524        C  0.24950374  0.14528269  0.52238146    -0.05900
C525        C  0.27143827  0.14112598  0.55622372     0.00000
C526        C  0.25373057  0.12147720  0.59688415    -0.08500
C527        C  0.27800543  0.12386076  0.63916851     0.61900
H528        H  0.19843096  0.08408148  0.62827475     0.12600
H529        H  0.26421299  0.16258230  0.49287863     0.12600
C530        C  0.19226014  0.14645287  0.49703300     0.62200
F531        F  0.21245320  0.51863949  0.46975036    -0.23000
F532        F  0.31107476  0.16953271  0.65511391    -0.20300
F533        F  0.26620804  0.09147466  0.94453492    -0.20000
F534        F  0.18174475  0.17087230  0.52754043    -0.20100
F535        F  0.15918432  0.10905345  0.46676529    -0.20400
F536        F  0.21919480  0.17618189  0.46861461    -0.23100
C537        C  0.31490336  0.66617985  0.04569200     0.80100
N538        N  0.33770571  0.71103736  0.03940859    -0.78200
C539        C  0.37677022  0.73299976  0.03427342     0.82500
N540        N  0.39373560  0.71065177  0.03695461    -0.78200
C541        C  0.37128265  0.66575498  0.04301545     0.82600
N542        N  0.33177120  0.64335362  0.04718673    -0.79900
C543        C  0.31238707  0.66775771  0.32686615     0.80100
N544        N  0.33172293  0.64738622  0.32354146    -0.78200
C545        C  0.36924846  0.67036831  0.31037188     0.82500
N546        N  0.38731107  0.71370139  0.30077156    -0.78200
C547        C  0.36854753  0.73461690  0.30348271     0.82600
N548        N  0.33126521  0.71136131  0.31696073    -0.79900
C549        C  0.22405072  0.88573530  0.11565429     0.80100
N550        N  0.20542643  0.90684692  0.11801134    -0.78200
C551        C  0.16529509  0.88139425  0.11905783     0.82500
N552        N  0.14403208  0.83461513  0.11666082    -0.78200
C553        C  0.16250616  0.81355654  0.11476360     0.82600
N554        N  0.20243706  0.83906259  0.11390592    -0.79900
C555        C  0.22457678  0.88555407  0.37253339     0.80100
N556        N  0.20736625  0.90779033  0.36914650    -0.78200
C557        C  0.16724807  0.88422497  0.36849166     0.82500
N558        N  0.14444126  0.83856779  0.37191426    -0.78200
C559        C  0.16143266  0.81647373  0.37645424     0.82600
N560        N  0.20132868  0.83987552  0.37598469    -0.79900
C561        C  0.14830459  0.58348775  0.06273449     0.76300
Tb562      Tb  0.47185879  0.51856854  0.07191779     1.80700
O563        O  0.13330531  0.57411351  0.10166763    -0.51700
O564        O  0.08767475  0.99788045  0.13004819    -0.59100
C565        C  0.06506165  0.61357919  0.08362062     0.92100
O566        O  0.46493747  0.57922535  0.09540210    -0.58700
Tb567      Tb  0.06566311  0.52470092  0.06878800     1.78100
O568        O  0.40130156  0.96610107  0.05784370    -0.59200
O569        O  0.00262857  0.95293236  0.03699058    -0.78000
O570        O  0.07445515  0.59317622  0.10667574    -0.77300
O571        O  0.04296861  0.52798071  0.49334098    -0.62600
C572        C  0.47164368  0.93200185  0.05923878     0.91700
O573        O  0.00198234  0.54050146  0.14906891    -0.74500
C574        C  0.39166834  0.46325367  0.08640468     0.75200
C575        C  0.08367633  0.96534270  0.09935773     0.76200
O576        O  0.12218930  0.56634646  0.02697528    -0.59800
O577        O  0.06669903  0.95922721  0.05880348    -0.51700
O578        O  0.98266866  0.50069281  0.98868437    -0.77800
O579        O  0.03890206  0.51355916  0.14390461    -0.61800
C580        C  0.01993343  0.52637664  0.16823088     0.90000
C581        C  0.01068381  0.51365914  0.46850876     0.91200
C582        C  0.44441922  0.57133684  0.05681157     0.75500
O583        O  0.41910257  0.49292704  0.12008290    -0.51100
O584        O  0.43724668  0.04140429  0.03139829    -0.52200
O585        O  0.45920009  0.95259315  0.08428061    -0.65100
O586        O  0.03287846  0.59073043  0.05571426    -0.66200
C587        C  0.14598245  0.58504152  0.33510120     0.76300
Tb588      Tb  0.47039710  0.52164629  0.32180437     1.82700
O589        O  0.12569576  0.58707006  0.36743386    -0.51700
O590        O  0.08127768  0.99199966  0.37621293    -0.59100
C591        C  0.06060022  0.61477135  0.33879544     0.92100
O592        O  0.46894092  0.58614672  0.35130471    -0.58700
Tb593      Tb  0.06254660  0.52592564  0.32318685     1.78100
O594        O  0.40054848  0.96933889  0.30755497    -0.59200
O595        O  0.00027819  0.94888842  0.32135943    -0.78000
O596        O  0.06905815  0.59193882  0.30986818    -0.77300
O597        O  0.04019358  0.51538902  0.24120691    -0.62600
C598        C  0.46841003  0.93073724  0.30001856     0.91700
O599        O  0.98027810  0.50136477  0.39014532    -0.74500
C600        C  0.38942384  0.46574166  0.33485784     0.75200
C601        C  0.09080536  0.97330783  0.34308801     0.76200
O602        O  0.12492287  0.55779206  0.29596969    -0.59800
O603        O  0.08236571  0.97629453  0.30129268    -0.51700
O604        O  0.99604239  0.53239470  0.24384540    -0.77800
O605        O  0.04614553  0.53875772  0.40094580    -0.61800
C606        C  0.01229053  0.51776317  0.41681742     0.90000
C607        C  0.01876689  0.52472080  0.22093151     0.91200
C608        C  0.44977443  0.58281374  0.31418491     0.75500
O609        O  0.41692442  0.48351566  0.36903702    -0.51100
O610        O  0.43935908  0.04820561  0.28734146    -0.52200
O611        O  0.45788934  0.95433571  0.28590479    -0.65100
O612        O  0.02921528  0.59329943  0.35935332    -0.66200
C613        C  0.08395571  0.69123871  0.38993004    -0.05900
C614        C  0.08747069  0.66674490  0.34834350     0.00000
C615        C  0.11599819  0.69247634  0.31683387    -0.08600
C616        C  0.14058054  0.74135597  0.32940402    -0.05900
C617        C  0.13626755  0.76533871  0.37002859     0.00000
C618        C  0.10746628  0.74039805  0.40085548    -0.08500
C619        C  0.10180224  0.76559232  0.44493012     0.61900
H620        H  0.06208999  0.67159781  0.41353779     0.12600
H621        H  0.16267112  0.76168443  0.30628489     0.12600
C622        C  0.11956731  0.66958304  0.26866087     0.62200
F623        F  0.07510283  0.73496560  0.47287385    -0.23000
F624        F  0.08724484  0.78856267  0.43021622    -0.20300
F625        F  0.13784699  0.79781991  0.47364972    -0.20000
F626        F  0.08271362  0.64054270  0.24109610    -0.20100
F627        F  0.13357440  0.64411884  0.27623913    -0.20400
F628        F  0.14574623  0.70212934  0.24194245    -0.23100
C629        C  0.32660346  0.95310460  0.32769876    -0.05900
C630        C  0.34762343  0.94416302  0.35712640     0.00000
C631        C  0.32836528  0.91620055  0.39212428    -0.08600
C632        C  0.28842367  0.89889312  0.39686204    -0.05900
C633        C  0.26751526  0.90860774  0.36785995     0.00000
C634        C  0.28672853  0.93536506  0.33177279    -0.08500
C635        C  0.26516701  0.94348686  0.29585627     0.61900
H636        H  0.34097838  0.47057789  0.28216832     0.12600
H637        H  0.27294348  0.87704627  0.42308619     0.12600
C638        C  0.34888816  0.90255258  0.42226773     0.62200
F639        F  0.28656732  0.45406477  0.23514963    -0.23000
F640        F  0.25569298  0.97199590  0.31960870    -0.20300
F641        F  0.23087344  0.90117164  0.27320940    -0.20000
F642        F  0.38208547  0.94180028  0.45075986    -0.20100
F643        F  0.36052891  0.87926958  0.39201010    -0.20400
F644        F  0.32401161  0.87347230  0.45259850    -0.23100
C645        C  0.10588606  0.91719571  0.31344941    -0.05900
C646        C  0.11066478  0.95100937  0.35151877     0.00000
C647        C  0.13594125  0.96435336  0.39457825    -0.08600
C648        C  0.15423482  0.94196747  0.39844656    -0.05900
C649        C  0.14807790  0.90706960  0.36102099     0.00000
C650        C  0.12378199  0.89450987  0.31763513    -0.08500
C651        C  0.11728847  0.85792907  0.27550847     0.61900
H652        H  0.08761646  0.90827966  0.28036944     0.12600
H653        H  0.17329809  0.95121070  0.43099764     0.12600
C654        C  0.10942656  0.46217731  0.43485151     0.62200
F655        F  0.09501577  0.85362538  0.23557744    -0.23000
F656        F  0.09724908  0.81490804  0.28890637    -0.20300
F657        F  0.15364460  0.87027271  0.26192510    -0.20000
F658        F  0.06871326  0.43946347  0.43331009    -0.20100
F659        F  0.12853463  0.50973052  0.43989979    -0.20400
F660        F  0.12184104  0.45412218  0.47517108    -0.23100
C661        C  0.09709443  0.69003479  0.13693977    -0.05900
C662        C  0.09114259  0.66466646  0.09054122     0.00000
C663        C  0.10875450  0.68827194  0.05197673    -0.08600
C664        C  0.13384543  0.73733214  0.06215377    -0.05900
C665        C  0.13881756  0.76258536  0.10831727     0.00000
C666        C  0.11948197  0.73888800  0.14607434    -0.08500
C667        C  0.12113358  0.76504793  0.19486279     0.61900
H668        H  0.08218818  0.67099510  0.16531892     0.12600
H669        H  0.14809234  0.75644044  0.03352925     0.12600
C670        C  0.09976579  0.66207392  0.00018054     0.62200
F671        F  0.10051939  0.73548950  0.22676896    -0.23000
F672        F  0.10384331  0.78727090  0.18848694    -0.20300
F673        F  0.16030899  0.79773562  0.21522283    -0.20000
F674        F  0.06059653  0.64153416  0.98325168    -0.20100
F675        F  0.11519931  0.61982592  0.50522838    -0.20400
F676        F  0.12904030  0.67616681  0.46603303    -0.23100
C677        C  0.32905455  0.44707404  0.05500543    -0.05900
C678        C  0.34842101  0.95217801  0.10509462     0.00000
C679        C  0.33153123  0.93386911  0.14667257    -0.08600
C680        C  0.29082724  0.91342455  0.14929401    -0.05900
C681        C  0.26720382  0.91213909  0.11253566     0.00000
C682        C  0.28417670  0.93118454  0.07138266    -0.08500
C683        C  0.26988060  0.44039197  0.01904056     0.61900
H684        H  0.34570067  0.46665660  0.02777236     0.12600
H685        H  0.27696178  0.89807657  0.18013927     0.12600
C686        C  0.35602990  0.93491776  0.18743443     0.62200
F687        F  0.29479277  0.46198046  0.98468701    -0.23000
F688        F  0.26162289  0.47020924  0.04261288    -0.20300
F689        F  0.22709412  0.88389843  0.01254684    -0.20000
F690        F  0.38396118  0.98060418  0.21076715    -0.20100
F691        F  0.37517422  0.91575400  0.16901505    -0.20400
F692        F  0.33272511  0.90978289  0.22121764    -0.23100
C693        C  0.10724751  0.87691411  0.08815419    -0.05900
C694        C  0.14376923  0.90279575  0.11802546     0.00000
C695        C  0.15765892  0.94688154  0.14643555    -0.08600
C696        C  0.13589782  0.96497251  0.14091260    -0.05900
C697        C  0.10084073  0.94038441  0.10848320     0.00000
C698        C  0.08524739  0.89468466  0.08318159    -0.08500
C699        C  0.04561078  0.86445239  0.05107975     0.61900
H700        H  0.09645771  0.84284146  0.06731448     0.12600
H701        H  0.14712545  0.99956912  0.16060251     0.12600
C702        C  0.19467798  0.97451676  0.18309125     0.62200
F703        F  0.04519988  0.82452805  0.49291647    -0.23000
F704        F  0.05000141  0.87967276  0.00787894    -0.20300
F705        F  0.02353200  0.86308468  0.53371104    -0.20000
F706        F  0.22836714  0.99200609  0.15950610    -0.20100
F707        F  0.19271967  0.94612883  0.21265629    -0.20400
F708        F  0.19829656  0.01185388  0.21234635    -0.23100
C709        C  0.39986715  0.58925778  0.27656278    -0.05900
C710        C  0.43271789  0.60928984  0.31160534     0.00000
C711        C  0.44671802  0.65216928  0.34326898    -0.08600
C712        C  0.42509664  0.67095968  0.34125215    -0.05900
C713        C  0.39120854  0.64946946  0.30768013     0.00000
C714        C  0.37991045  0.60963361  0.27269169    -0.08500
C715        C  0.34805470  0.58793801  0.22993782     0.61900
H716        H  0.39023737  0.05896467  0.25092144     0.12600
H717        H  0.43425029  0.70252918  0.36646976     0.12600
C718        C  0.48486295  0.67903754  0.37776801     0.62200
F719        F  0.37087905  0.09403876  0.18622000    -0.23000
F720        F  0.33666957  0.61603888  0.22275247    -0.20300
F721        F  0.31511302  0.54549945  0.23718420    -0.20000
F722        F  0.51536731  0.68473779  0.35244886    -0.20100
F723        F  0.47993446  0.65523285  0.41426113    -0.20400
F724        F  0.49604326  0.72303170  0.39922223    -0.23100
C725        C  0.42929394  0.80412569  0.28165426    -0.05900
C726        C  0.39019503  0.78318780  0.29368226     0.00000
C727        C  0.37457779  0.80980685  0.29653426    -0.08600
C728        C  0.40073531  0.85771555  0.29485256    -0.05900
C729        C  0.44086181  0.87910376  0.28828543     0.00000
C730        C  0.45429945  0.85093723  0.27721972    -0.08500
C731        C  0.49431376  0.86791752  0.25996738     0.61900
H732        H  0.44112215  0.78397203  0.27574945     0.12600
H733        H  0.39054720  0.87954129  0.30154534     0.12600
C734        C  0.33131290  0.78938516  0.30239905     0.62200
F735        F  0.48907088  0.83676271  0.21928074    -0.23000
F736        F  0.01865642  0.88321086  0.31112846    -0.20300
F737        F  0.01166783  0.90482290  0.24268060    -0.20000
F738        F  0.32359279  0.77929375  0.34810159    -0.20100
F739        F  0.30646508  0.74940314  0.26742701    -0.20400
F740        F  0.32242198  0.82024169  0.29713687    -0.23100
C741        C  0.25913534  0.67080032  0.36260026    -0.05900
C742        C  0.27041193  0.64312222  0.33885258     0.00000
C743        C  0.24044087  0.59446119  0.32267072    -0.08600
C744        C  0.20033851  0.57736207  0.32393800    -0.05900
C745        C  0.18913100  0.60632883  0.34248350     0.00000
C746        C  0.21886912  0.65313820  0.36515412    -0.08500
C747        C  0.20830259  0.68451002  0.39047909     0.61900
H748        H  0.28225655  0.70694547  0.37833255     0.12600
H749        H  0.17699181  0.54090966  0.30909848     0.12600
C750        C  0.24985194  0.56064853  0.30206051     0.62200
F751        F  0.24184851  0.72954347  0.40802889    -0.23000
F752        F  0.18793363  0.66659273  0.42917268    -0.20300
F753        F  0.18463301  0.68696316  0.35860115    -0.20000
F754        F  0.27475631  0.56183230  0.33588442    -0.20100
F755        F  0.26782770  0.57276745  0.26055291    -0.20400
F756        F  0.21595167  0.51496676  0.29006246    -0.23100
C757        C  0.43000123  0.62713118  0.09166942    -0.05900
C758        C  0.42655720  0.59638121  0.05068150     0.00000
C759        C  0.40539406  0.59371254  0.50354118    -0.08600
C760        C  0.38558346  0.61472804  0.50358288    -0.05900
C761        C  0.39036767  0.64241933  0.04705222     0.00000
C762        C  0.41286543  0.65103472  0.09032980    -0.08500
C763        C  0.41897255  0.68570166  0.13463824     0.61900
H764        H  0.44639697  0.63253376  0.12506380     0.12600
H765        H  0.36751872  0.60823443  0.47122660     0.12600
C766        C  0.41013614  0.06704020  0.46426318     0.62200
F767        F  0.44032902  0.68745805  0.17379755    -0.23000
F768        F  0.38251221  0.67316218  0.14807040    -0.20300
F769        F  0.43978348  0.72994996  0.12402637    -0.20000
F770        F  0.38583108  0.02016226  0.46612648    -0.20100
F771        F  0.44820429  0.08060951  0.45745835    -0.20400
F772        F  0.39532506  0.07298775  0.42429577    -0.23100
C773        C  0.43505866  0.85417326  0.00566809    -0.05900
C774        C  0.44832173  0.88105966  0.05293136     0.00000
C775        C  0.43839136  0.85891377  0.09335669    -0.08600
C776        C  0.41578469  0.81019611  0.08497891    -0.05900
C777        C  0.40200440  0.78348885  0.03811849     0.00000
C778        C  0.41006345  0.80616345  0.50130535    -0.08500
C779        C  0.39467988  0.77880722  0.44961689     0.61900
H780        H  0.44741895  0.87368996  0.48103491     0.12600
H781        H  0.40797312  0.79216395  0.11512062     0.12600
C782        C  0.45250871  0.88620816  0.14514660     0.62200
F783        F  0.41255237  0.80755139  0.41624911    -0.23000
F784        F  0.35403231  0.75650719  0.44191290    -0.20300
F785        F  0.40222651  0.74573758  0.44164364    -0.20000
F786        F  0.43644467  0.91055929  0.15572735    -0.20100
F787        F  0.49357720  0.91699245  0.15158233    -0.20400
F788        F  0.44095717  0.85697774  0.17786036    -0.23100
C789        C  0.21254434  0.59962242  0.09072613    -0.05900
C790        C  0.19159757  0.60754249  0.05942625     0.00000
C791        C  0.21221625  0.63673882  0.02578500    -0.08600
C792        C  0.25174004  0.65289364  0.02115171    -0.05900
C793        C  0.27225861  0.64370815  0.05115937     0.00000
C794        C  0.25301378  0.61837376  0.08815145    -0.08500
C795        C  0.27544795  0.61339686  0.12630830     0.61900
H796        H  0.19684797  0.57831338  0.11731463     0.12600
H797        H  0.26741505  0.67391641  0.99432648     0.12600
C798        C  0.19410678  0.65420620  0.99784907     0.62200
F799        F  0.20966889  0.02437471  0.95357621    -0.23000
F800        F  0.30909371  0.65705891  0.14757324    -0.20300
F801        F  0.26911145  0.58407646  0.45756753    -0.20000
F802        F  0.18116771  0.67476462  0.03002719    -0.20100
F803        F  0.16259256  0.61766777  0.96480978    -0.20400
F804        F  0.22160139  0.68757594  0.97280357    -0.23100
C805        C  0.30963337  0.66288974  0.54119117     0.80100
N806        N  0.33195864  0.70883972  0.53828149    -0.78200
C807        C  0.37163095  0.73272798  0.53544174     0.82500
N808        N  0.38953597  0.71143857  0.53749368    -0.78200
C809        C  0.36793527  0.66604028  0.54113023     0.82600
N810        N  0.32795551  0.64166122  0.54299429    -0.79900
C811        C  0.30785380  0.66596049  0.81955125     0.80100
N812        N  0.32653108  0.64484746  0.81661911    -0.78200
C813        C  0.36541682  0.66883148  0.80844207     0.82500
N814        N  0.38549482  0.71388315  0.80355745    -0.78200
C815        C  0.36745865  0.73559644  0.80587408     0.82600
N816        N  0.32877901  0.71125584  0.81417345    -0.79900
C817        C  0.22245960  0.87429666  0.59448316     0.80100
N818        N  0.20491261  0.89635162  0.59432161    -0.78200
C819        C  0.16510356  0.87276138  0.59595492     0.82500
N820        N  0.14274192  0.82656436  0.59730089    -0.78200
C821        C  0.16017622  0.80448536  0.59858509     0.82600
N822        N  0.19995415  0.82827349  0.59667533    -0.79900
C823        C  0.22185175  0.88084158  0.85878088     0.80100
N824        N  0.20436774  0.90299209  0.85633536    -0.78200
C825        C  0.16410393  0.87882185  0.85508734     0.82500
N826        N  0.14151926  0.83284121  0.85658644    -0.78200
C827        C  0.15860003  0.81070589  0.85966936     0.82600
N828        N  0.19867287  0.83455708  0.86012318    -0.79900
C829        C  0.14156497  0.57346405  0.55999490     0.76300
Tb830      Tb  0.46873193  0.52015689  0.56987673     1.80700
O831        O  0.12656612  0.57761139  0.59740154    -0.51700
O832        O  0.08592410  0.98603984  0.61759775    -0.59100
C833        C  0.05829445  0.60543810  0.57867187     0.92100
O834        O  0.46627439  0.58448362  0.59160493    -0.58700
Tb835      Tb  0.05894809  0.51637665  0.56757499     1.78100
O836        O  0.40429893  0.96020244  0.55010315    -0.59200
O837        O  0.00499533  0.94947351  0.53906184    -0.78000
O838        O  0.06765657  0.58539227  0.60242931    -0.77300
O839        O  0.04816481  0.53443944  0.99336562    -0.62600
C840        C  0.47565727  0.93202918  0.56549439     0.91700
O841        O  0.99474405  0.53241637  0.64629605    -0.74500
C842        C  0.38855082  0.46807842  0.58449619     0.75200
C843        C  0.08643187  0.96092853  0.58126567     0.76200
O844        O  0.11532863  0.54337660  0.52551488    -0.59800
O845        O  0.07344843  0.96311670  0.54215387    -0.51700
O846        O  0.97769303  0.49672023  0.48646699    -0.77800
O847        O  0.03139702  0.50495383  0.64162112    -0.61800
C848        C  0.01244481  0.51797359  0.66551572     0.90000
C849        C  0.01496656  0.51837557  0.96927991     0.91200
C850        C  0.44469674  0.57583101  0.55369225     0.75500
O851        O  0.41642450  0.49752579  0.61782515    -0.51100
O852        O  0.44074933  0.04144805  0.53221995    -0.52200
O853        O  0.46544701  0.95412809  0.59235000    -0.65100
O854        O  0.02493392  0.58316638  0.55322228    -0.66200
C855        C  0.13991585  0.58091193  0.82130742     0.76300
Tb856      Tb  0.46715776  0.52081854  0.82346456     1.82700
O857        O  0.12175742  0.58551306  0.85500581    -0.51700
O858        O  0.07300794  0.98099333  0.87223183    -0.59100
C859        C  0.05557686  0.60961514  0.82967982     0.92100
O860        O  0.46414367  0.58426318  0.85201447    -0.58700
Tb861      Tb  0.05753891  0.52111875  0.81925682     1.78100
O862        O  0.40289309  0.97658554  0.80592360    -0.59200
O863        O  0.00200117  0.95190313  0.82801450    -0.78000
O864        O  0.06330526  0.58551613  0.80177828    -0.77300
O865        O  0.03160973  0.50531656  0.73778361    -0.62600
C866        C  0.47038098  0.93283036  0.80304081     0.91700
O867        O  0.98090568  0.50307069  0.89186609    -0.74500
C868        C  0.38730614  0.46549652  0.84052208     0.75200
C869        C  0.08741807  0.96890922  0.83925349     0.76200
O870        O  0.11693261  0.54990685  0.78495127    -0.59800
O871        O  0.08657575  0.98199241  0.80046346    -0.51700
O872        O  0.99026353  0.52629711  0.74168194    -0.77800
O873        O  0.04669042  0.54029383  0.89833809    -0.61800
C874        C  0.01403408  0.52044759  0.91682534     0.90000
C875        C  0.01137049  0.51641916  0.71806136     0.91200
C876        C  0.44483217  0.58030109  0.81463940     0.75500
O877        O  0.41583943  0.48608995  0.87390540    -0.51100
O878        O  0.44437494  0.05377437  0.79004290    -0.52200
O879        O  0.45991017  0.95616113  0.78799817    -0.65100
O880        O  0.02557765  0.58967737  0.85281720    -0.66200
C881        C  0.08085508  0.68746873  0.87760264    -0.05900
C882        C  0.08226178  0.66125687  0.83598443     0.00000
C883        C  0.10870291  0.68498912  0.80180708    -0.08600
C884        C  0.13495068  0.73397172  0.81315667    -0.05900
C885        C  0.13309486  0.75970107  0.85445262     0.00000
C886        C  0.10496598  0.73649284  0.88668626    -0.08500
C887        C  0.10016273  0.76322851  0.93011113     0.61900
H888        H  0.05981860  0.66918575  0.90260289     0.12600
H889        H  0.15596611  0.75297562  0.78837295     0.12600
C890        C  0.10728179  0.65996655  0.75177069     0.62200
F891        F  0.07431359  0.73402911  0.95970719    -0.23000
F892        F  0.08492509  0.78515626  0.91440021    -0.20300
F893        F  0.13666080  0.79641107  0.95752873    -0.20000
F894        F  0.06875013  0.63273358  0.72870782    -0.20100
F895        F  0.11959331  0.63204504  0.75497101    -0.20400
F896        F  0.13180793  0.69114245  0.72290088    -0.23100
C897        C  0.32593480  0.95229350  0.81969657    -0.05900
C898        C  0.34753361  0.94655157  0.85245350     0.00000
C899        C  0.32757926  0.91853823  0.88736695    -0.08600
C900        C  0.28677755  0.89907775  0.88934036    -0.05900
C901        C  0.26539889  0.90551570  0.85679255     0.00000
C902        C  0.28502122  0.93110208  0.82012333    -0.08500
C903        C  0.26255535  0.93314672  0.77919371     0.61900
H904        H  0.33903403  0.47246231  0.79068799     0.12600
H905        H  0.27094300  0.87783202  0.91587811     0.12600
C906        C  0.34813078  0.90642078  0.91991184     0.62200
F907        F  0.28379425  0.45868018  0.74754362    -0.23000
F908        F  0.24937661  0.95960509  0.79672335    -0.20300
F909        F  0.23042416  0.88834149  0.75814184    -0.20000
F910        F  0.37852639  0.94576455  0.95156467    -0.20100
F911        F  0.36404928  0.88708033  0.89199340    -0.20400
F912        F  0.32187003  0.87450801  0.94712296    -0.23100
C913        C  0.10932865  0.92101904  0.80290211    -0.05900
C914        C  0.10485536  0.94347665  0.84509238     0.00000
C915        C  0.11797966  0.94198194  0.89096282    -0.08600
C916        C  0.13898419  0.92249027  0.89259569    -0.05900
C917        C  0.14423382  0.90131040  0.85031112     0.00000
C918        C  0.12678864  0.89758912  0.80501564    -0.08500
C919        C  0.12454340  0.86672242  0.75979005     0.61900
H920        H  0.09763375  0.92045889  0.76809530     0.12600
H921        H  0.15064545  0.92246111  0.92711894     0.12600
C922        C  0.14213745  0.50229716  0.93030203     0.62200
F923        F  0.10641159  0.86801316  0.71938418    -0.23000
F924        F  0.10246421  0.82105798  0.76647529    -0.20300
F925        F  0.16231885  0.88088152  0.75097712    -0.20000
F926        F  0.10750483  0.49072792  0.94913614    -0.20100
F927        F  0.15929306  0.54336974  0.91341442    -0.20400
F928        F  0.16825246  0.51009614  0.96777286    -0.23100
C929        C  0.08838607  0.68363926  0.62619226    -0.05900
C930        C  0.08558278  0.65611427  0.58305632     0.00000
C931        C  0.10781371  0.67723343  0.54532563    -0.08600
C932        C  0.13312734  0.72618079  0.55279479    -0.05900
C933        C  0.13542379  0.75377885  0.59572504     0.00000
C934        C  0.11292873  0.73251948  0.63323316    -0.08500
C935        C  0.11507171  0.76116199  0.68047835     0.61900
H936        H  0.07041197  0.66632824  0.65393213     0.12600
H937        H  0.15048086  0.74340123  0.52455215     0.12600
C938        C  0.10450302  0.64839398  0.49743485     0.62200
F939        F  0.09104458  0.73325772  0.71215312    -0.23000
F940        F  0.10243731  0.78758320  0.67136041    -0.20300
F941        F  0.15389052  0.79031422  0.70278268    -0.20000
F942        F  0.06574721  0.62130376  0.47533847    -0.20100
F943        F  0.10540831  0.62771556  0.99802296    -0.20400
F944        F  0.12411703  0.69146467  0.96978453    -0.23100
C945        C  0.32318197  0.44506317  0.55251109    -0.05900
C946        C  0.34768642  0.94155740  0.59153508     0.00000
C947        C  0.32794467  0.91686310  0.62857746    -0.08600
C948        C  0.28691622  0.89552889  0.62814232    -0.05900
C949        C  0.26578986  0.89987398  0.59319814     0.00000
C950        C  0.28596205  0.92631737  0.55722794    -0.08500
C951        C  0.25946449  0.42735729  0.51415082     0.61900
H952        H  0.33756715  0.46072956  0.52213515     0.12600
H953        H  0.27093827  0.87551281  0.65550877     0.12600
C954        C  0.34978621  0.91177442  0.66727597     0.62200
F955        F  0.28239026  0.44686194  0.47757491    -0.23000
F956        F  0.24674635  0.45415258  0.53239783    -0.20300
F957        F  0.23263247  0.89026250  0.49404864    -0.20000
F958        F  0.37855435  0.95512627  0.69532562    -0.20100
F959        F  0.36764077  0.89206994  0.64545037    -0.20400
F960        F  0.32434083  0.88343090  0.69772578    -0.23100
C961        C  0.11126395  0.87310449  0.55968601    -0.05900
C962        C  0.14555647  0.89605144  0.59304731     0.00000
C963        C  0.15989378  0.93984049  0.62250579    -0.08600
C964        C  0.13828621  0.95823902  0.61860898    -0.05900
C965        C  0.10457635  0.93598434  0.58445233     0.00000
C966        C  0.09113836  0.89303893  0.55363742    -0.08500
C967        C  0.05617859  0.86846109  0.51431689     0.61900
H968        H  0.10122333  0.84002265  0.53695683     0.12600
H969        H  0.14872001  0.99160374  0.64096141     0.12600
C970        C  0.19785443  0.96748402  0.65765547     0.62200
F971        F  0.03151996  0.81800374  0.04059557    -0.23000
F972        F  0.06651151  0.89455149  0.47851372    -0.20300
F973        F  0.01730317  0.86668503  0.07412942    -0.20000
F974        F  0.23045526  0.98326044  0.63225397    -0.20100
F975        F  0.19644582  0.93980434  0.68772206    -0.20400
F976        F  0.20328312  0.00613890  0.68641829    -0.23100
C977        C  0.39642495  0.58809401  0.77448449    -0.05900
C978        C  0.42795271  0.60687611  0.81123433     0.00000
C979        C  0.44128299  0.64917303  0.84359405    -0.08600
C980        C  0.41949796  0.66767142  0.84146716    -0.05900
C981        C  0.38675073  0.64727089  0.80642096     0.00000
C982        C  0.37685989  0.60890463  0.77005027    -0.08500
C983        C  0.34790253  0.59015128  0.72468269     0.61900
H984        H  0.39025109  0.05771054  0.76130994     0.12600
H985        H  0.42790926  0.69851742  0.86749446     0.12600
C986        C  0.47915399  0.67613313  0.87868284     0.62200
F987        F  0.36184593  0.07704166  0.69622017    -0.23000
F988        F  0.33466810  0.61692513  0.71981482    -0.20300
F989        F  0.31540466  0.54500465  0.72518595    -0.20000
F990        F  0.51009445  0.68209893  0.85410989    -0.20100
F991        F  0.47386059  0.65235442  0.91532112    -0.20400
F992        F  0.49006087  0.72008189  0.89986126    -0.23100
C993        C  0.43046329  0.80610881  0.78985109    -0.05900
C994        C  0.39078614  0.78536723  0.79925117     0.00000
C995        C  0.37596954  0.81283925  0.80150373    -0.08600
C996        C  0.40260391  0.86041427  0.79867321    -0.05900
C997        C  0.44272538  0.88114312  0.79280734     0.00000
C998        C  0.45603546  0.85261366  0.78466379    -0.08500
C999        C  0.49634045  0.86868028  0.76915919     0.61900
H1000       H  0.44216308  0.78575954  0.78583640     0.12600
H1001       H  0.39281643  0.88270604  0.80396332     0.12600
C1002       C  0.33333970  0.79408290  0.80931058     0.62200
F1003       F  0.49183217  0.83544631  0.73153602    -0.23000
F1004       F  0.01867649  0.87616082  0.81741811    -0.20300
F1005       F  0.01740449  0.90988218  0.75642604    -0.20000
F1006       F  0.32670744  0.78356651  0.85497842    -0.20100
F1007       F  0.30697625  0.75490024  0.77421397    -0.20400
F1008       F  0.32557764  0.82629801  0.80639096    -0.23100
C1009       C  0.25249271  0.66892381  0.84594265    -0.05900
C1010       C  0.26480594  0.64093812  0.82704058     0.00000
C1011       C  0.23530741  0.59190624  0.81205040    -0.08600
C1012       C  0.19496830  0.57436331  0.81153483    -0.05900
C1013       C  0.18313204  0.60350157  0.82588584     0.00000
C1014       C  0.21218490  0.65143210  0.84470072    -0.08500
C1015       C  0.20116374  0.68488366  0.85899315     0.61900
H1016       H  0.27487424  0.70546117  0.86019776     0.12600
H1017       H  0.17196001  0.53732223  0.79913587     0.12600
C1018       C  0.24539295  0.55792128  0.79541009     0.62200
F1019       F  0.23434547  0.73021112  0.87622822    -0.23000
F1020       F  0.17609337  0.67149804  0.89470362    -0.20300
F1021       F  0.18223747  0.68507751  0.81891619    -0.20000
F1022       F  0.26953976  0.56075857  0.83180176    -0.20100
F1023       F  0.26453828  0.56838822  0.75440978    -0.20400
F1024       F  0.21173614  0.51199654  0.78409668    -0.23100
C1025       C  0.43152389  0.63286361  0.58810981    -0.05900
C1026       C  0.42754198  0.60152067  0.54740085     0.00000
C1027       C  0.40549740  0.58984907  0.00640332    -0.08600
C1028       C  0.38719828  0.61259136  0.00589818    -0.05900
C1029       C  0.38854861  0.64439140  0.54476992     0.00000
C1030       C  0.41286080  0.65512230  0.58731064    -0.08500
C1031       C  0.41893980  0.68984995  0.63159921     0.61900
H1032       H  0.44909460  0.63953032  0.62101046     0.12600
H1033       H  0.37030174  0.60751834  0.97310509     0.12600
C1034       C  0.40334695  0.06233479  0.96157581     0.62200
F1035       F  0.44055508  0.69188045  0.67067889    -0.23000
F1036       F  0.38246219  0.67716266  0.64529718    -0.20300
F1037       F  0.43953559  0.73403335  0.62085816    -0.20000
F1038       F  0.37864893  0.01652369  0.96697327    -0.20100
F1039       F  0.44080407  0.07436090  0.95373989    -0.20400
F1040       F  0.38762860  0.06612068  0.92072457    -0.23100
C1041       C  0.43719622  0.85512542  0.51073358    -0.05900
C1042       C  0.45029238  0.88098480  0.55839665     0.00000
C1043       C  0.43737840  0.85786151  0.59811976    -0.08600
C1044       C  0.41053238  0.80907638  0.58848076    -0.05900
C1045       C  0.39670856  0.78344352  0.54103251     0.00000
C1046       C  0.41093820  0.80504788  0.99759234    -0.08500
C1047       C  0.39402300  0.77607631  0.94671395     0.61900
H1048       H  0.44262047  0.87190030  0.97532753     0.12600
H1049       H  0.40032802  0.79023481  0.61800013     0.12600
C1050       C  0.45322686  0.88400675  0.65034087     0.62200
F1051       F  0.40685059  0.80390606  0.91224488    -0.23000
F1052       F  0.35284397  0.74911250  0.94248865    -0.20300
F1053       F  0.40580534  0.74701220  0.93726628    -0.20000
F1054       F  0.44038686  0.91158877  0.66330201    -0.20100
F1055       F  0.49442472  0.91182014  0.65580683    -0.20400
F1056       F  0.44019604  0.85355454  0.68205507    -0.23100
C1057       C  0.19661325  0.57194618  0.53018807    -0.05900
C1058       C  0.18504670  0.59778437  0.55723222     0.00000
C1059       C  0.21486707  0.64447156  0.58088476    -0.08600
C1060       C  0.25503654  0.66391109  0.57474072    -0.05900
C1061       C  0.26648811  0.63821403  0.54675173     0.00000
C1062       C  0.23667175  0.59110080  0.52417664    -0.08500
C1063       C  0.24646568  0.56114828  0.49288376     0.61900
H1064       H  0.17382348  0.53579020  0.51462361     0.12600
H1065       H  0.27811321  0.69963136  0.59235789     0.12600
C1066       C  0.20463536  0.67404143  0.61183261     0.62200
F1067       F  0.25624311  0.10921294  0.67789913    -0.23000
F1068       F  0.26724531  0.55196770  0.52131980    -0.20300
F1069       F  0.28643257  0.58547783  0.10543518    -0.20000
F1070       F  0.18812564  0.65504219  0.65189519    -0.20100
F1071       F  0.17782398  0.67572636  0.58501014    -0.20400
F1072       F  0.23795991  0.71949931  0.62826473    -0.23100
C1073       C  0.80942320  0.16634183  0.03970789     0.80100
N1074       N  0.83328508  0.21158208  0.03445185    -0.78200
C1075       C  0.87266626  0.23288839  0.03127991     0.82500
N1076       N  0.88865336  0.20965669  0.03526971    -0.78200
C1077       C  0.86536003  0.16481984  0.04127438     0.82600
N1078       N  0.82571880  0.14312558  0.04357137    -0.79900
C1079       C  0.81234993  0.17369370  0.32839367     0.80100
N1080       N  0.83153016  0.15343549  0.33026813    -0.78200
C1081       C  0.86968414  0.17539603  0.31938269     0.82500
N1082       N  0.88842705  0.21753012  0.30634970    -0.78200
C1083       C  0.86986731  0.23835729  0.30390360     0.82600
N1084       N  0.83205997  0.21625836  0.31554550    -0.79900
C1085       C  0.72634832  0.38125662  0.10023417     0.80100
N1086       N  0.70828962  0.40279975  0.09941852    -0.78200
C1087       C  0.66813682  0.37828191  0.09903980     0.82500
N1088       N  0.64610020  0.33188964  0.09913334    -0.78200
C1089       C  0.66386348  0.31025443  0.10067199     0.82600
N1090       N  0.70395017  0.33484810  0.10087527    -0.79900
C1091       C  0.72285826  0.38289260  0.35856189     0.80100
N1092       N  0.70523617  0.40503813  0.35789843    -0.78200
C1093       C  0.66536159  0.38147343  0.36022797     0.82500
N1094       N  0.64316147  0.33583490  0.36343654    -0.78200
C1095       C  0.66039354  0.31361897  0.36491671     0.82600
N1096       N  0.70009086  0.33701198  0.36180652    -0.79900
C1097       C  0.64324220  0.07963490  0.06567137     0.76300
Tb1098     Tb  0.96847660  0.02062743  0.07655855     1.80700
O1099       O  0.62989428  0.08838022  0.10246613    -0.51700
O1100       O  0.58917331  0.49211669  0.11626241    -0.59100
C1101       C  0.56231342  0.11208137  0.08955339     0.92100
O1102       O  0.96199178  0.08209741  0.09758143    -0.58700
Tb1103     Tb  0.56240978  0.02293418  0.08074414     1.78100
O1104       O  0.90497176  0.46439120  0.04707557    -0.59200
O1105       O  0.50674460  0.45133576  0.03361188    -0.78000
O1106       O  0.57108718  0.09237129  0.11480345    -0.77300
O1107       O  0.54676786  0.03092758  0.50452521    -0.62600
C1108       C  0.97566259  0.43184001  0.05140896     0.91700
O1109       O  0.49895890  0.03886818  0.15971872    -0.74500
C1110       C  0.88911350  0.96645480  0.09592121     0.75200
C1111       C  0.58674867  0.46319973  0.08180232     0.76200
O1112       O  0.61597984  0.04477786  0.03528219    -0.59800
O1113       O  0.57111731  0.46162454  0.04245406    -0.51700
O1114       O  0.48086659  0.00388250  0.99959224    -0.77800
O1115       O  0.53428859  0.00974054  0.15402929    -0.61800
C1116       C  0.51590064  0.02324847  0.17836183     0.90000
C1117       C  0.51409625  0.01589642  0.47996114     0.91200
C1118       C  0.93993319  0.07219219  0.05959212     0.75500
O1119       O  0.91789244  0.99685455  0.12792426    -0.51100
O1120       O  0.94015821  0.53870762  0.01831895    -0.52200
O1121       O  0.96437959  0.45350267  0.07695346    -0.65100
O1122       O  0.52910847  0.08952994  0.06394590    -0.66200
C1123       C  0.64370881  0.08641998  0.33156289     0.76300
Tb1124     Tb  0.96911015  0.02257896  0.32793510     1.82700
O1125       O  0.62549022  0.09156562  0.36481655    -0.51700
O1126       O  0.57257234  0.48193604  0.37081796    -0.59100
C1127       C  0.55876620  0.11269314  0.34204258     0.92100
O1128       O  0.96835936  0.08766217  0.35916360    -0.58700
Tb1129     Tb  0.56132273  0.02417279  0.33154521     1.78100
O1130       O  0.90128012  0.47596011  0.29530160    -0.59200
O1131       O  0.50098201  0.44888796  0.31814783    -0.78000
O1132       O  0.56650182  0.08839845  0.31452563    -0.77300
O1133       O  0.53555995  0.01036148  0.25020305    -0.62600
C1134       C  0.96969138  0.43193314  0.29010816     0.91700
O1135       O  0.48199459  0.00339279  0.40239595    -0.74500
C1136       C  0.88938568  0.96740602  0.34597922     0.75200
C1137       C  0.58668340  0.46854352  0.33866214     0.76200
O1138       O  0.62065365  0.05306557  0.29681553    -0.59800
O1139       O  0.58522679  0.47957531  0.29867653    -0.51700
O1140       O  0.49369518  0.03076972  0.25457351    -0.77800
O1141       O  0.54763974  0.03913377  0.41044085    -0.61800
C1142       C  0.51444902  0.01917905  0.42782327     0.90000
C1143       C  0.51495353  0.02124621  0.23078860     0.91200
C1144       C  0.94795321  0.08419892  0.32327140     0.75500
O1145       O  0.91811744  0.98426299  0.37811263    -0.51100
O1146       O  0.93981643  0.55065455  0.28100099    -0.52200
O1147       O  0.95928294  0.45510312  0.27447059    -0.65100
O1148       O  0.52947922  0.09311647  0.36633868    -0.66200
C1149       C  0.58489933  0.19147438  0.38811451    -0.05900
C1150       C  0.58461924  0.16415634  0.34619191     0.00000
C1151       C  0.60906919  0.18665852  0.30996270    -0.08600
C1152       C  0.63476523  0.23573606  0.31922190    -0.05900
C1153       C  0.63500622  0.26263566  0.36120667     0.00000
C1154       C  0.60934312  0.24049878  0.39605435    -0.08500
C1155       C  0.60831673  0.26839963  0.44180789     0.61900
H1156       H  0.56544372  0.17405456  0.41474531     0.12600
H1157       H  0.65405156  0.25384993  0.29267312     0.12600
C1158       C  0.60639371  0.16009245  0.26021519     0.62200
F1159       F  0.58386585  0.23996036  0.47283833    -0.23000
F1160       F  0.59406193  0.29259635  0.43008766    -0.20300
F1161       F  0.64627963  0.29969886  0.46622279    -0.20000
F1162       F  0.56735336  0.13187922  0.23871874    -0.20100
F1163       F  0.61943847  0.13292095  0.26368581    -0.20400
F1164       F  0.62963120  0.19004936  0.22971835    -0.23100
C1165       C  0.82573641  0.45452626  0.31508274    -0.05900
C1166       C  0.84740921  0.44628477  0.34440028     0.00000
C1167       C  0.82829836  0.41783974  0.37913747    -0.08600
C1168       C  0.78798137  0.39921517  0.38359235    -0.05900
C1169       C  0.76617387  0.40732081  0.35397711     0.00000
C1170       C  0.78530624  0.43482322  0.31833262    -0.08500
C1171       C  0.76274293  0.44011522  0.28080476     0.61900
H1172       H  0.84139900  0.97906910  0.30324278     0.12600
H1173       H  0.77281084  0.37723747  0.40979612     0.12600
C1174       C  0.84933782  0.40464684  0.40901607     0.62200
F1175       F  0.78697477  0.96906884  0.26394688    -0.23000
F1176       F  0.74842125  0.46405049  0.30274839    -0.20300
F1177       F  0.73168278  0.39621375  0.25630837    -0.20000
F1178       F  0.88214243  0.44399325  0.43803333    -0.20100
F1179       F  0.86160940  0.38229952  0.37834132    -0.20400
F1180       F  0.82464539  0.37487720  0.43891409    -0.23100
C1181       C  0.61121002  0.42302946  0.30512001    -0.05900
C1182       C  0.60490851  0.44433460  0.34649264     0.00000
C1183       C  0.61725248  0.44309274  0.39301529    -0.08600
C1184       C  0.63864384  0.42415794  0.39619266    -0.05900
C1185       C  0.64518150  0.40353235  0.35459344     0.00000
C1186       C  0.62904118  0.40027754  0.30861544    -0.08500
C1187       C  0.62831055  0.37033041  0.26382603     0.61900
H1188       H  0.60062450  0.42269136  0.26993003     0.12600
H1189       H  0.64946904  0.42407606  0.43112209     0.12600
C1190       C  0.63991552  0.99851093  0.44738381     0.62200
F1191       F  0.61055738  0.37115308  0.22272173    -0.23000
F1192       F  0.60698619  0.32467036  0.27028822    -0.20300
F1193       F  0.66655864  0.38600492  0.25642301    -0.20000
F1194       F  0.60378513  0.98347254  0.46406217    -0.20100
F1195       F  0.65662522  0.04089396  0.43349996    -0.20400
F1196       F  0.66517078  0.00550941  0.48546976    -0.23100
C1197       C  0.59461192  0.19177199  0.13441236    -0.05900
C1198       C  0.58994796  0.16247932  0.09175116     0.00000
C1199       C  0.60960101  0.18159442  0.05172319    -0.08600
C1200       C  0.63515299  0.23043074  0.05686379    -0.05900
C1201       C  0.63930242  0.25974937  0.09941814     0.00000
C1202       C  0.61853960  0.24039638  0.13867753    -0.08500
C1203       C  0.62082012  0.27087283  0.18425240     0.61900
H1204       H  0.57785305  0.17599709  0.16359568     0.12600
H1205       H  0.65091975  0.24611500  0.02707335     0.12600
C1206       C  0.60310363  0.15065600  0.00381436     0.62200
F1207       F  0.60139807  0.24540717  0.21968830    -0.23000
F1208       F  0.60294878  0.29141411  0.17321892    -0.20300
F1209       F  0.66020810  0.30512697  0.20279995    -0.20000
F1210       F  0.56375368  0.12518141  0.98422490    -0.20100
F1211       F  0.60201909  0.11964891  0.50786470    -0.20400
F1212       F  0.62026576  0.17966185  0.47299438    -0.23100
C1213       C  0.82357538  0.94487467  0.06714449    -0.05900
C1214       C  0.85177867  0.44903518  0.09405369     0.00000
C1215       C  0.83354622  0.42721750  0.13339530    -0.08600
C1216       C  0.79235718  0.40542721  0.13423907    -0.05900
C1217       C  0.76984849  0.40730258  0.09859374     0.00000
C1218       C  0.78878707  0.43148738  0.06077699    -0.08500
C1219       C  0.75893440  0.92488007  0.02900028     0.61900
H1220       H  0.83743084  0.96022383  0.03632686     0.12600
H1221       H  0.77742278  0.38721400  0.16316813     0.12600
C1222       C  0.85736667  0.42678742  0.17382116     0.62200
F1223       F  0.78157495  0.94476417  0.99235107    -0.23000
F1224       F  0.74384658  0.94942437  0.04558972    -0.20300
F1225       F  0.73356881  0.39252653  0.99965816    -0.20000
F1226       F  0.88561612  0.47209996  0.19808146    -0.20100
F1227       F  0.87621933  0.40735570  0.15483200    -0.20400
F1228       F  0.83350489  0.40119187  0.20702683    -0.23100
C1229       C  0.61283274  0.37641900  0.06304515    -0.05900
C1230       C  0.64771814  0.40065273  0.09577193     0.00000
C1231       C  0.66079360  0.44380054  0.12561411    -0.08600
C1232       C  0.63887112  0.46166303  0.12065907    -0.05900
C1233       C  0.60484930  0.43839632  0.08672134     0.00000
C1234       C  0.59109613  0.39456805  0.05772040    -0.08500
C1235       C  0.55318418  0.36629233  0.02246464     0.61900
H1236       H  0.60302152  0.34318575  0.04094117     0.12600
H1237       H  0.64911437  0.49518492  0.14242953     0.12600
C1238       C  0.69742315  0.47102175  0.16285353     0.62200
F1239       F  0.52705837  0.31278676  0.52873431    -0.23000
F1240       F  0.55822946  0.38903635  0.98483635    -0.20300
F1241       F  0.51165149  0.35650311  0.57331043    -0.20000
F1242       F  0.73136278  0.48972658  0.13966042    -0.20100
F1243       F  0.69576662  0.44207980  0.19126779    -0.20400
F1244       F  0.70028382  0.50735686  0.19324337    -0.23100
C1245       C  0.89961609  0.09340295  0.28548362    -0.05900
C1246       C  0.93104458  0.11127006  0.32198519     0.00000
C1247       C  0.94414134  0.15299429  0.35550228    -0.08600
C1248       C  0.92255229  0.17201460  0.35405965    -0.05900
C1249       C  0.89025602  0.15277222  0.31857499     0.00000
C1250       C  0.88037673  0.11469861  0.28172097    -0.08500
C1251       C  0.85170588  0.09655953  0.23623266     0.61900
H1252       H  0.89427917  0.56582448  0.24721956     0.12600
H1253       H  0.93116404  0.20274772  0.38038415     0.12600
C1254       C  0.98205812  0.17932681  0.39034563     0.62200
F1255       F  0.87510053  0.60249896  0.18798609    -0.23000
F1256       F  0.83770574  0.12269225  0.23215964    -0.20300
F1257       F  0.81961509  0.05094146  0.23547296    -0.20000
F1258       F  0.01309021  0.18749731  0.36462585    -0.20100
F1259       F  0.97764426  0.15385342  0.42486531    -0.20400
F1260       F  0.99216629  0.22219987  0.41434003    -0.23100
C1261       C  0.93247901  0.30727935  0.28439869    -0.05900
C1262       C  0.89205634  0.28555175  0.29027539     0.00000
C1263       C  0.87544704  0.30986736  0.28285309    -0.08600
C1264       C  0.90153140  0.35744473  0.27941995    -0.05900
C1265       C  0.94263815  0.38002973  0.27922515     0.00000
C1266       C  0.95727671  0.35287740  0.27621961    -0.08500
C1267       C  0.99847935  0.36979857  0.26384409     0.61900
H1268       H  0.94541455  0.28859315  0.28590810     0.12600
H1269       H  0.89015380  0.37795227  0.27955221     0.12600
C1270       C  0.83107643  0.28728222  0.27910333     0.62200
F1271       F  0.99584019  0.33625155  0.22855845    -0.23000
F1272       F  0.51950685  0.37082477  0.29858000    -0.20300
F1273       F  0.51656169  0.40875555  0.24381931    -0.20000
F1274       F  0.81852107  0.28231603  0.32447586    -0.20100
F1275       F  0.81023499  0.24417038  0.24802193    -0.20400
F1276       F  0.82204042  0.31416402  0.26084969    -0.23100
C1277       C  0.75671859  0.17787547  0.35171806    -0.05900
C1278       C  0.76949244  0.14953422  0.33682730     0.00000
C1279       C  0.74036104  0.10016734  0.32571512    -0.08600
C1280       C  0.69990820  0.08210185  0.32439323    -0.05900
C1281       C  0.68734010  0.11081128  0.33544266     0.00000
C1282       C  0.71609896  0.15956286  0.35091103    -0.08500
C1283       C  0.70435026  0.19254542  0.36278052     0.61900
H1284       H  0.77904515  0.21513691  0.36294234     0.12600
H1285       H  0.67726134  0.04465337  0.31468462     0.12600
C1286       C  0.75094701  0.06604515  0.31494979     0.62200
F1287       F  0.73721807  0.23859872  0.37730389    -0.23000
F1288       F  0.68029596  0.18088472  0.39960171    -0.20300
F1289       F  0.68405122  0.18978658  0.32210084    -0.20000
F1290       F  0.77468533  0.07219812  0.35428006    -0.20100
F1291       F  0.77069749  0.07318198  0.27435331    -0.20400
F1292       F  0.71752627  0.01993585  0.30611287    -0.23100
C1293       C  0.92315108  0.12622524  0.09341344    -0.05900
C1294       C  0.92163016  0.09672414  0.05258428     0.00000
C1295       C  0.90227342  0.08644721  0.51156191    -0.08600
C1296       C  0.88307049  0.10819370  0.51158549    -0.05900
C1297       C  0.88381759  0.14089888  0.04686995     0.00000
C1298       C  0.90515454  0.14914907  0.09108981    -0.08500
C1299       C  0.90884518  0.18216362  0.13548661     0.61900
H1300       H  0.93848696  0.13116393  0.12752109     0.12600
H1301       H  0.86672748  0.10383626  0.47863414     0.12600
C1302       C  0.88900426  0.55149101  0.45963548     0.62200
F1303       F  0.93079310  0.18536572  0.17500314    -0.23000
F1304       F  0.87134456  0.16649947  0.14779849    -0.20300
F1305       F  0.92777502  0.22650960  0.12571547    -0.20000
F1306       F  0.86743969  0.50643267  0.46750295    -0.20100
F1307       F  0.92480445  0.56368010  0.44403415    -0.20400
F1308       F  0.86756214  0.55226173  0.42258075    -0.23100
C1309       C  0.93322233  0.35307163  0.99953991    -0.05900
C1310       C  0.95128824  0.38086054  0.04593568     0.00000
C1311       C  0.94390783  0.35969250  0.08679863    -0.08600
C1312       C  0.91820606  0.31092418  0.07984527    -0.05900
C1313       C  0.89933162  0.28333918  0.03397494     0.00000
C1314       C  0.90422278  0.29662089  0.49569995    -0.08500
C1315       C  0.88360272  0.26514533  0.44652346     0.61900
H1316       H  0.93257039  0.36127408  0.46947472     0.12600
H1317       H  0.91198786  0.29369378  0.11041042     0.12600
C1318       C  0.96347502  0.38816401  0.13747129     0.62200
F1319       F  0.89358791  0.29062411  0.41016903    -0.23000
F1320       F  0.84273140  0.23887755  0.44685321    -0.20300
F1321       F  0.89460995  0.23539088  0.43606255    -0.20000
F1322       F  0.95027490  0.41508272  0.15250256    -0.20100
F1323       F  0.00440386  0.41677183  0.13789502    -0.20400
F1324       F  0.95444480  0.35972139  0.17051238    -0.23100
C1325       C  0.69673248  0.07892634  0.02941944    -0.05900
C1326       C  0.68621111  0.10450362  0.05936615     0.00000
C1327       C  0.71662327  0.15128453  0.08241226    -0.08600
C1328       C  0.75646653  0.17023641  0.07461185    -0.05900
C1329       C  0.76669212  0.14411721  0.04482986     0.00000
C1330       C  0.73614189  0.09815477  0.02046178    -0.08500
C1331       C  0.74456188  0.06973833  0.98389671     0.61900
H1332       H  0.67382163  0.04266840  0.01403816     0.12600
H1333       H  0.78020998  0.20553341  0.09265647     0.12600
C1334       C  0.70745840  0.18111817  0.11511483     0.62200
F1335       F  0.75188053  0.58094719  0.14489290    -0.23000
F1336       F  0.76343478  0.05533284  0.00754300    -0.20300
F1337       F  0.78602907  0.09232812  0.62209637    -0.20000
F1338       F  0.69369401  0.16315739  0.15649379    -0.20100
F1339       F  0.67888305  0.18171982  0.09092257    -0.20400
F1340       F  0.74084211  0.22691134  0.12926254    -0.23100
C1341       C  0.81109221  0.16287105  0.55004059     0.80100
N1342       N  0.83445263  0.20700833  0.54176702    -0.78200
C1343       C  0.87337396  0.22769379  0.53680114     0.82500
N1344       N  0.88956703  0.20479833  0.54140450    -0.78200
C1345       C  0.86649199  0.16050045  0.54917482     0.82600
N1346       N  0.82711661  0.13931826  0.55337675    -0.79900
C1347       C  0.81102990  0.16577953  0.82729669     0.80100
N1348       N  0.82984898  0.14483389  0.82406837    -0.78200
C1349       C  0.86645947  0.16630014  0.80854381     0.82500
N1350       N  0.88428900  0.20877943  0.79695441    -0.78200
C1351       C  0.86622699  0.23046675  0.80015415     0.82600
N1352       N  0.82978788  0.20879208  0.81587301    -0.79900
C1353       C  0.71910228  0.37913625  0.60389691     0.80100
N1354       N  0.70097913  0.40073547  0.60442630    -0.78200
C1355       C  0.66110881  0.37650775  0.60722937     0.82500
N1356       N  0.63954528  0.33036439  0.60855962    -0.78200
C1357       C  0.65756487  0.30890834  0.60848427     0.82600
N1358       N  0.69718545  0.33317243  0.60579230    -0.79900
C1359       C  0.72314683  0.38618511  0.86801547     0.80100
N1360       N  0.70629510  0.40901397  0.86563080    -0.78200
C1361       C  0.66627701  0.38601702  0.86623890     0.82500
N1362       N  0.64324791  0.34030557  0.86970345    -0.78200
C1363       C  0.65996241  0.31771723  0.87321363     0.82600
N1364       N  0.69965672  0.34055541  0.87157657    -0.79900
C1365       C  0.64665060  0.08490979  0.57258889     0.76300
Tb1366     Tb  0.97118972  0.01773714  0.57532240     1.80700
O1367       O  0.63261140  0.07916952  0.61245349    -0.51700
O1368       O  0.57798701  0.48692608  0.62259128    -0.59100
C1369       C  0.56126607  0.11070775  0.59147635     0.92100
O1370       O  0.96486241  0.07887810  0.59875876    -0.58700
Tb1371     Tb  0.56484295  0.02482242  0.58154517     1.78100
O1372       O  0.89650567  0.45918901  0.54118429    -0.59200
O1373       O  0.50050731  0.45034905  0.53149304    -0.78000
O1374       O  0.57050394  0.09191067  0.61736681    -0.77300
O1375       O  0.54523543  0.03121714  0.00512772    -0.62600
C1376       C  0.96871614  0.42526758  0.55012243     0.91700
O1377       O  0.49854831  0.03687325  0.65989471    -0.74500
C1378       C  0.89077649  0.96180333  0.58962259     0.75200
C1379       C  0.57925375  0.46021090  0.58900137     0.76200
O1380       O  0.61992755  0.06344009  0.53693369    -0.59800
O1381       O  0.56835171  0.46102476  0.54772083    -0.51700
O1382       O  0.48156794  0.99914404  0.49878190    -0.77800
O1383       O  0.53825634  0.01363389  0.65626353    -0.61800
C1384       C  0.51798272  0.02481928  0.67976197     0.90000
C1385       C  0.51320936  0.01825588  0.98085517     0.91200
C1386       C  0.94293260  0.06968031  0.56094791     0.75500
O1387       O  0.91832281  0.99135814  0.62323071    -0.51100
O1388       O  0.93360468  0.53622967  0.52052995    -0.52200
O1389       O  0.95604445  0.44585991  0.57456372    -0.65100
O1390       O  0.52981797  0.08629047  0.56234960    -0.66200
C1391       C  0.64603999  0.08509589  0.84239569     0.76300
Tb1392     Tb  0.97190626  0.02443321  0.82778023     1.82700
O1393       O  0.62682444  0.08719273  0.87616283    -0.51700
O1394       O  0.57943409  0.49295041  0.87333095    -0.59100
C1395       C  0.56200232  0.11624089  0.84578830     0.92100
O1396       O  0.96712719  0.08623312  0.85812589    -0.58700
Tb1397     Tb  0.56286738  0.02650505  0.83381710     1.78100
O1398       O  0.89721724  0.47035671  0.79496154    -0.59200
O1399       O  0.49827726  0.44838360  0.82020124    -0.78000
O1400       O  0.57056608  0.09272573  0.81822642    -0.77300
O1401       O  0.53855593  0.01413268  0.75241021    -0.62600
C1402       C  0.96507346  0.42627438  0.79199367     0.91700
O1403       O  0.48195034  0.00405100  0.90270196    -0.74500
C1404       C  0.89077875  0.96849217  0.84178107     0.75200
C1405       C  0.58866281  0.47378461  0.84038878     0.76200
O1406       O  0.62404147  0.05765314  0.80385739    -0.59800
O1407       O  0.57968921  0.47589588  0.79842869    -0.51700
O1408       O  0.49554651  0.03272525  0.75569686    -0.77800
O1409       O  0.54777565  0.04105789  0.91208551    -0.61800
C1410       C  0.51424611  0.02085095  0.92882565     0.90000
C1411       C  0.51734319  0.02384608  0.73241646     0.91200
C1412       C  0.95108682  0.08499782  0.81932985     0.75500
O1413       O  0.91868508  0.98764083  0.87570179    -0.51100
O1414       O  0.93499765  0.54418502  0.77801994    -0.52200
O1415       O  0.95410457  0.44849414  0.77531453    -0.65100
O1416       O  0.53172506  0.09560739  0.86847784    -0.66200
C1417       C  0.58644524  0.19413022  0.89395939    -0.05900
C1418       C  0.58773641  0.16810546  0.85186859     0.00000
C1419       C  0.61327480  0.19226992  0.81710776    -0.08600
C1420       C  0.63645432  0.24124096  0.82645668    -0.05900
C1421       C  0.63465535  0.26665325  0.86807431     0.00000
C1422       C  0.60958322  0.24324401  0.90270254    -0.08500
C1423       C  0.60821891  0.27015494  0.94905970     0.61900
H1424       H  0.56704559  0.17568748  0.92020689     0.12600
H1425       H  0.65617124  0.26050632  0.80078378     0.12600
C1426       C  0.61575551  0.16750078  0.76952687     0.62200
F1427       F  0.58385351  0.24083198  0.97949144    -0.23000
F1428       F  0.59371364  0.29434370  0.93817664    -0.20300
F1429       F  0.64616619  0.30155002  0.97368268    -0.20000
F1430       F  0.57812374  0.13571567  0.74428112    -0.20100
F1431       F  0.63207627  0.14468397  0.77829933    -0.20400
F1432       F  0.63953919  0.19838457  0.73998775    -0.23100
C1433       C  0.82324849  0.45066249  0.81795163    -0.05900
C1434       C  0.84440441  0.44037082  0.84516815     0.00000
C1435       C  0.82566447  0.41203027  0.88000297    -0.08600
C1436       C  0.78656698  0.39671471  0.88773873    -0.05900
C1437       C  0.76566857  0.40806822  0.86118173     0.00000
C1438       C  0.78403979  0.43446108  0.82461703    -0.08500
C1439       C  0.76230371  0.44414810  0.79105486     0.61900
H1440       H  0.84086014  0.96981852  0.78726577     0.12600
H1441       H  0.77175628  0.37518183  0.91439371     0.12600
C1442       C  0.84583550  0.39599157  0.90685003     0.62200
F1443       F  0.78534630  0.95199201  0.74096484    -0.23000
F1444       F  0.75672087  0.47576593  0.81654925    -0.20300
F1445       F  0.72600995  0.40308519  0.77122540    -0.20000
F1446       F  0.87855752  0.43357370  0.93767616    -0.20100
F1447       F  0.85810818  0.37512182  0.87390080    -0.20400
F1448       F  0.82036481  0.36377941  0.93428866    -0.23100
C1449       C  0.60540141  0.41946950  0.81083978    -0.05900
C1450       C  0.60922116  0.45240050  0.84913905     0.00000
C1451       C  0.63399205  0.46549228  0.89261776    -0.08600
C1452       C  0.65295578  0.44375550  0.89641440    -0.05900
C1453       C  0.64721364  0.40910123  0.85883757     0.00000
C1454       C  0.62303489  0.39660713  0.81535572    -0.08500
C1455       C  0.61562177  0.35920320  0.77365695     0.61900
H1456       H  0.58773653  0.41099095  0.77748213     0.12600
H1457       H  0.67174299  0.45288224  0.92900660     0.12600
C1458       C  0.60353922  0.95458236  0.94295717     0.62200
F1459       F  0.59432153  0.35581206  0.73325931    -0.23000
F1460       F  0.59409854  0.31631469  0.78747472    -0.20300
F1461       F  0.65149336  0.36965547  0.76053304    -0.20000
F1462       F  0.56257390  0.93048718  0.93955484    -0.20100
F1463       F  0.62147520  0.00194122  0.95021392    -0.20400
F1464       F  0.61542364  0.94564956  0.98301690    -0.23100
C1465       C  0.59287707  0.18914177  0.63986938    -0.05900
C1466       C  0.58688406  0.16128659  0.59518733     0.00000
C1467       C  0.60399422  0.18191635  0.55481596    -0.08600
C1468       C  0.62860030  0.23071922  0.56145153    -0.05900
C1469       C  0.63367369  0.25847686  0.60576972     0.00000
C1470       C  0.61519971  0.23778735  0.64544713    -0.08500
C1471       C  0.61833380  0.26698706  0.69271768     0.61900
H1472       H  0.57841337  0.17225923  0.66966796     0.12600
H1473       H  0.64272011  0.24761637  0.53150214     0.12600
C1474       C  0.59569266  0.15274706  0.50490526     0.62200
F1475       F  0.59926084  0.24025011  0.72733927    -0.23000
F1476       F  0.60060451  0.28836096  0.68451900    -0.20300
F1477       F  0.65798354  0.30057113  0.71067965    -0.20000
F1478       F  0.55654427  0.13051282  0.48633621    -0.20100
F1479       F  0.61220713  0.12052818  0.01093651    -0.20400
F1480       F  0.62679608  0.17636127  0.97062719    -0.23100
C1481       C  0.82722432  0.94486770  0.56005526    -0.05900
C1482       C  0.84244164  0.44052019  0.58914239     0.00000
C1483       C  0.82574085  0.42222210  0.63087171    -0.08600
C1484       C  0.78542663  0.40335732  0.63469366    -0.05900
C1485       C  0.76201288  0.40400928  0.59937802     0.00000
C1486       C  0.77877518  0.42320645  0.55825235    -0.08500
C1487       C  0.76601764  0.93421604  0.52407645     0.61900
H1488       H  0.84287811  0.96340290  0.53175544     0.12600
H1489       H  0.77184259  0.38833632  0.66580200     0.12600
C1490       C  0.85006088  0.42241860  0.67121789     0.62200
F1491       F  0.79018879  0.95584500  0.48918176    -0.23000
F1492       F  0.75496364  0.96189482  0.54545447    -0.20300
F1493       F  0.72039852  0.38117851  0.50164179    -0.20000
F1494       F  0.87666288  0.46764421  0.69674271    -0.20100
F1495       F  0.87073795  0.40539377  0.65223487    -0.20400
F1496       F  0.82624546  0.39485599  0.70324242    -0.23100
C1497       C  0.60231806  0.37142745  0.57779910    -0.05900
C1498       C  0.64013226  0.39844829  0.60512084     0.00000
C1499       C  0.65575243  0.44417361  0.63055812    -0.08600
C1500       C  0.63360402  0.46181625  0.62585268    -0.05900
C1501       C  0.59687805  0.43564653  0.59666048     0.00000
C1502       C  0.58028492  0.38922970  0.57301954    -0.08500
C1503       C  0.53906741  0.35811605  0.54439663     0.61900
H1504       H  0.59036767  0.33623300  0.55923713     0.12600
H1505       H  0.64566670  0.49727130  0.64358976     0.12600
C1506       C  0.69516793  0.47423987  0.66312316     0.62200
F1507       F  0.54292587  0.32237444  0.00255438    -0.23000
F1508       F  0.53878748  0.37530913  0.50401966    -0.20300
F1509       F  0.52196949  0.36039091  0.04637354    -0.20000
F1510       F  0.72629233  0.48785255  0.63545686    -0.20100
F1511       F  0.69557722  0.44940778  0.69568663    -0.20400
F1512       F  0.70140472  0.51433540  0.68943882    -0.23100
C1513       C  0.90074256  0.08867409  0.77884037    -0.05900
C1514       C  0.93279854  0.10978659  0.81543628     0.00000
C1515       C  0.94435770  0.15147377  0.84753723    -0.08600
C1516       C  0.92162154  0.16850621  0.84351256    -0.05900
C1517       C  0.88877657  0.14618743  0.80811776     0.00000
C1518       C  0.87920413  0.10688150  0.77363952    -0.08500
C1519       C  0.84699552  0.08290497  0.73087108     0.61900
H1520       H  0.88205404  0.55212320  0.74964351     0.12600
H1521       H  0.92901414  0.19934756  0.86863480     0.12600
C1522       C  0.98077989  0.17878173  0.88505973     0.62200
F1523       F  0.85902464  0.58066040  0.68570331    -0.23000
F1524       F  0.83392744  0.10906126  0.72231983    -0.20300
F1525       F  0.81499690  0.04048193  0.73941059    -0.20000
F1526       F  0.01327977  0.18617563  0.86339389    -0.20100
F1527       F  0.97399362  0.15443647  0.92160664    -0.20400
F1528       F  0.99012055  0.22207467  0.90595714    -0.23100
C1529       C  0.92888155  0.30136733  0.78502102    -0.05900
C1530       C  0.88824826  0.27870066  0.78972759     0.00000
C1531       C  0.87141330  0.30315294  0.78492817    -0.08600
C1532       C  0.89720242  0.35099671  0.78225732    -0.05900
C1533       C  0.93848883  0.37427651  0.78246241     0.00000
C1534       C  0.95372776  0.34770589  0.77937859    -0.08500
C1535       C  0.99666851  0.36764627  0.77377378     0.61900
H1536       H  0.94219073  0.28315625  0.78699663     0.12600
H1537       H  0.88549980  0.37119473  0.78286295     0.12600
C1538       C  0.82704705  0.28019552  0.78361030     0.62200
F1539       F  0.99991229  0.33381581  0.74850875    -0.23000
F1540       F  0.51578210  0.36892830  0.79489864    -0.20300
F1541       F  0.50956053  0.40673894  0.74294857    -0.20000
F1542       F  0.81578788  0.27362265  0.82941468    -0.20100
F1543       F  0.80576462  0.23771947  0.75138368    -0.20400
F1544       F  0.81711727  0.30750031  0.76857877    -0.23100
C1545       C  0.75915629  0.17106080  0.86331401    -0.05900
C1546       C  0.76969936  0.14226464  0.84072286     0.00000
C1547       C  0.73951787  0.09341991  0.82658409    -0.08600
C1548       C  0.69968744  0.07678646  0.82927040    -0.05900
C1549       C  0.68910415  0.10640618  0.84760119     0.00000
C1550       C  0.71923087  0.15382127  0.86767641    -0.08500
C1551       C  0.70941295  0.18622813  0.89212092     0.61900
H1552       H  0.78253562  0.20773641  0.87653314     0.12600
H1553       H  0.67602700  0.04006328  0.81621180     0.12600
C1554       C  0.74841600  0.05873621  0.80751737     0.62200
F1555       F  0.69109751  0.17092735  0.93280937    -0.23000
F1556       F  0.68416796  0.18664609  0.86065531    -0.20300
F1557       F  0.74323960  0.23171501  0.90649286    -0.20000
F1558       F  0.77273310  0.06017193  0.84246926    -0.20100
F1559       F  0.76693667  0.06953468  0.76612893    -0.20400
F1560       F  0.71417160  0.01325251  0.79591270    -0.23100
C1561       C  0.92508693  0.12162796  0.59753322    -0.05900
C1562       C  0.92354807  0.09312191  0.55569749     0.00000
C1563       C  0.90198358  0.09086098  0.00743485    -0.08600
C1564       C  0.88277437  0.11250632  0.00583903    -0.05900
C1565       C  0.88476412  0.13629465  0.55342179     0.00000
C1566       C  0.90629113  0.14372836  0.59704768    -0.08500
C1567       C  0.90963953  0.17525175  0.64266856     0.61900
H1568       H  0.94121394  0.12658995  0.63095969     0.12600
H1569       H  0.86698367  0.10783454  0.97220851     0.12600
C1570       C  0.89748076  0.55082967  0.95063206     0.62200
F1571       F  0.92892176  0.17456674  0.68232199    -0.23000
F1572       F  0.87209263  0.16072786  0.65325117    -0.20300
F1573       F  0.93077779  0.22076050  0.63568589    -0.20000
F1574       F  0.87581565  0.50681686  0.96153464    -0.20100
F1575       F  0.93370337  0.56244806  0.93712856    -0.20400
F1576       F  0.87652601  0.54925994  0.91113679    -0.23100
C1577       C  0.92851204  0.34552173  0.50078881    -0.05900
C1578       C  0.94660844  0.37476352  0.54652216     0.00000
C1579       C  0.94176040  0.35529224  0.58823993    -0.08600
C1580       C  0.91812947  0.30668722  0.58276379    -0.05900
C1581       C  0.89929160  0.27766425  0.53753860     0.00000
C1582       C  0.90663367  0.30405296  0.99295655    -0.08500
C1583       C  0.88597135  0.27432316  0.94308452     0.61900
H1584       H  0.93913141  0.37011096  0.96889684     0.12600
H1585       H  0.91358407  0.29064166  0.61399261     0.12600
C1586       C  0.96247589  0.38527972  0.63805407     0.62200
F1587       F  0.89732000  0.30123326  0.90785620    -0.23000
F1588       F  0.84518907  0.24970184  0.94311354    -0.20300
F1589       F  0.89528856  0.24307382  0.93114962    -0.20000
F1590       F  0.94951792  0.41247464  0.65282633    -0.20100
F1591       F  0.00314575  0.41354002  0.63662504    -0.20400
F1592       F  0.95475678  0.35834385  0.67238341    -0.23100
C1593       C  0.71151988  0.10364402  0.60120208    -0.05900
C1594       C  0.68969508  0.10917106  0.56854593     0.00000
C1595       C  0.70922006  0.13603948  0.53284912    -0.08600
C1596       C  0.74797769  0.15018835  0.52619105    -0.05900
C1597       C  0.76911290  0.14248296  0.55716936     0.00000
C1598       C  0.75166707  0.12185991  0.59746198    -0.08500
C1599       C  0.77594908  0.12225298  0.63809227     0.61900
H1600       H  0.69688801  0.08489917  0.62989017     0.12600
H1601       H  0.76261341  0.16878827  0.49738380     0.12600
C1602       C  0.69121575  0.15405164  0.50569691     0.62200
F1603       F  0.70910075  0.52907820  0.45633760    -0.23000
F1604       F  0.81017716  0.16717710  0.65362569    -0.20300
F1605       F  0.76844806  0.09648112  0.95143708    -0.20000
F1606       F  0.67844322  0.17441843  0.53849969    -0.20100
F1607       F  0.65963515  0.11792080  0.47247002    -0.20400
F1608       F  0.71882721  0.18788153  0.48116633    -0.23100
C1609       C  0.81255225  0.66113053  0.03210663     0.80100
N1610       N  0.83503990  0.70725490  0.03029405    -0.78200
C1611       C  0.87441043  0.73084889  0.02598849     0.82500
N1612       N  0.89188043  0.70879322  0.02495803    -0.78200
C1613       C  0.86993532  0.66284172  0.02678866     0.82600
N1614       N  0.83015133  0.63881840  0.03035921    -0.79900
C1615       C  0.81077081  0.66878815  0.32805198     0.80100
N1616       N  0.83032170  0.64888944  0.32787216    -0.78200
C1617       C  0.86781690  0.67119922  0.31504398     0.82500
N1618       N  0.88566743  0.71333433  0.30252386    -0.78200
C1619       C  0.86676403  0.73391792  0.30237169     0.82600
N1620       N  0.82939545  0.71136832  0.31556975    -0.79900
C1621       C  0.72307962  0.88199573  0.11529028     0.80100
N1622       N  0.70579647  0.90458579  0.11723749    -0.78200
C1623       C  0.66606854  0.88122537  0.12030239     0.82500
N1624       N  0.64374192  0.83467356  0.12063870    -0.78200
C1625       C  0.66086963  0.81200104  0.11913554     0.82600
N1626       N  0.70046236  0.83569645  0.11605997    -0.79900
C1627       C  0.72428605  0.88487411  0.37360302     0.80100
N1628       N  0.70713773  0.90764044  0.37385188    -0.78200
C1629       C  0.66715560  0.88422073  0.37514392     0.82500
N1630       N  0.64447142  0.83805875  0.37651666    -0.78200
C1631       C  0.66129036  0.81524813  0.37704592     0.82600
N1632       N  0.70104312  0.83864592  0.37493479    -0.79900
C1633       C  0.64733684  0.57995764  0.05874718     0.76300
Tb1634     Tb  0.97356599  0.52229052  0.06829912     1.80700
O1635       O  0.63435226  0.57221770  0.09898266    -0.51700
O1636       O  0.59009971  0.99977246  0.13175528    -0.59100
C1637       C  0.56265990  0.61129742  0.08787468     0.92100
O1638       O  0.96950095  0.58556315  0.08484317    -0.58700
Tb1639     Tb  0.56548516  0.52287559  0.07103123     1.78100
O1640       O  0.90005197  0.96091035  0.05513451    -0.59200
O1641       O  0.50345237  0.95412271  0.03974987    -0.78000
O1642       O  0.57375636  0.59139938  0.10918654    -0.77300
O1643       O  0.54348656  0.52952190  0.49691880    -0.62600
C1644       C  0.97136284  0.93086799  0.05756588     0.91700
O1645       O  0.50120324  0.53762216  0.15201834    -0.74500
C1646       C  0.89413334  0.47092575  0.08751263     0.75200
C1647       C  0.58565022  0.96718170  0.10074480     0.76200
O1648       O  0.61966581  0.56199592  0.02481194    -0.59800
O1649       O  0.56747438  0.96050672  0.06096625    -0.51700
O1650       O  0.48148742  0.49916763  0.99175661    -0.77800
O1651       O  0.53973199  0.51278305  0.14678322    -0.61800
C1652       C  0.52004546  0.52454379  0.17103000     0.90000
C1653       C  0.51132920  0.51528540  0.47188444     0.91200
C1654       C  0.94722690  0.57425308  0.04648939     0.75500
O1655       O  0.92297463  0.50119671  0.11951457    -0.51100
O1656       O  0.93365219  0.03791195  0.02964316    -0.52200
O1657       O  0.95988285  0.95184609  0.08397696    -0.65100
O1658       O  0.53041230  0.58792325  0.05993490    -0.66200
C1659       C  0.64423945  0.58342045  0.33646272     0.76300
Tb1660     Tb  0.97008348  0.52306999  0.31968670     1.82700
O1661       O  0.62413813  0.58500468  0.36926633    -0.51700
O1662       O  0.58383078  0.99637489  0.38353082    -0.59100
C1663       C  0.56061102  0.61309984  0.34016857     0.92100
O1664       O  0.97169742  0.58974680  0.34904404    -0.58700
Tb1665     Tb  0.56119361  0.52337605  0.32549095     1.78100
O1666       O  0.90035601  0.97542623  0.30492492    -0.59200
O1667       O  0.50103023  0.95006149  0.32647009    -0.78000
O1668       O  0.56888750  0.58994474  0.31147482    -0.77300
O1669       O  0.53909762  0.51186152  0.24344944    -0.62600
C1670       C  0.96708907  0.92936907  0.29611286     0.91700
O1671       O  0.48043431  0.50069862  0.39299766    -0.74500
C1672       C  0.88964377  0.46841249  0.33618942     0.75200
C1673       C  0.59107354  0.97453977  0.35107078     0.76200
O1674       O  0.62309599  0.55561519  0.29760768    -0.59800
O1675       O  0.58118112  0.97518681  0.30884035    -0.51700
O1676       O  0.49712681  0.53191348  0.24669508    -0.77800
O1677       O  0.54617352  0.53782123  0.40350007    -0.61800
C1678       C  0.51254712  0.51768148  0.41977221     0.90000
C1679       C  0.51884898  0.52278032  0.22350167     0.91200
C1680       C  0.94912049  0.58428037  0.31448295     0.75500
O1681       O  0.91806346  0.48544211  0.36882147    -0.51100
O1682       O  0.94047348  0.05208125  0.28890231    -0.52200
O1683       O  0.95594662  0.95291250  0.28323368    -0.65100
O1684       O  0.52955394  0.59182823  0.36131294    -0.66200
C1685       C  0.58388557  0.68975859  0.39043259    -0.05900
C1686       C  0.58728405  0.66509779  0.34898089     0.00000
C1687       C  0.61542226  0.69066785  0.31705610    -0.08600
C1688       C  0.63991910  0.73967280  0.32929393    -0.05900
C1689       C  0.63584349  0.76387889  0.37005740     0.00000
C1690       C  0.60719081  0.73888381  0.40107945    -0.08500
C1691       C  0.60147416  0.76388027  0.44529659     0.61900
H1692       H  0.56213876  0.67020028  0.41420396     0.12600
H1693       H  0.66186195  0.75985373  0.30595898     0.12600
C1694       C  0.61884532  0.66733989  0.26907858     0.62200
F1695       F  0.57507101  0.73314344  0.47336752    -0.23000
F1696       F  0.58644798  0.78645873  0.43085637    -0.20300
F1697       F  0.63756731  0.79634817  0.47382120    -0.20000
F1698       F  0.58180832  0.63737338  0.24199443    -0.20100
F1699       F  0.63357055  0.64270856  0.27714182    -0.20400
F1700       F  0.64435831  0.69950673  0.24162608    -0.23100
C1701       C  0.82621760  0.95586333  0.32846667    -0.05900
C1702       C  0.84747420  0.94532374  0.35507759     0.00000
C1703       C  0.82826856  0.91477325  0.38793997    -0.08600
C1704       C  0.78842072  0.89718545  0.39415010    -0.05900
C1705       C  0.76721781  0.90831711  0.36784592     0.00000
C1706       C  0.78617966  0.93708571  0.33320609    -0.08500
C1707       C  0.76396498  0.94554452  0.29873055     0.61900
H1708       H  0.84080163  0.47628524  0.28866097     0.12600
H1709       H  0.77324258  0.87397950  0.41937218     0.12600
C1710       C  0.84883958  0.89884181  0.41414103     0.62200
F1711       F  0.78642398  0.46446418  0.24684798    -0.23000
F1712       F  0.75315104  0.97211868  0.32399654    -0.20300
F1713       F  0.73043784  0.90317560  0.27477284    -0.20000
F1714       F  0.88082027  0.93622187  0.44603878    -0.20100
F1715       F  0.86232896  0.87979375  0.38079675    -0.20400
F1716       F  0.82334278  0.86521950  0.44027264    -0.23100
C1717       C  0.60665211  0.91896051  0.32160457    -0.05900
C1718       C  0.61027166  0.95152391  0.36030074     0.00000
C1719       C  0.63364174  0.96264195  0.40443660    -0.08600
C1720       C  0.65230502  0.94040843  0.40776061    -0.05900
C1721       C  0.64755389  0.90705156  0.36918267     0.00000
C1722       C  0.62390039  0.89558657  0.32561263    -0.08500
C1723       C  0.61740654  0.85942744  0.28289133     0.61900
H1724       H  0.59005430  0.91180627  0.28772931     0.12600
H1725       H  0.67043819  0.94845965  0.44073361     0.12600
C1726       C  0.60759083  0.46096103  0.43896477     0.62200
F1727       F  0.59458889  0.85499614  0.24350516    -0.23000
F1728       F  0.59778236  0.81619863  0.29574533    -0.20300
F1729       F  0.65375203  0.87238664  0.26865364    -0.20000
F1730       F  0.56669790  0.43575649  0.43825083    -0.20100
F1731       F  0.62404055  0.50768780  0.44197546    -0.20400
F1732       F  0.62228691  0.45621240  0.47997736    -0.23100
C1733       C  0.59283280  0.68797126  0.14121186    -0.05900
C1734       C  0.58779478  0.66253685  0.09516245     0.00000
C1735       C  0.60666701  0.68618925  0.05712662    -0.08600
C1736       C  0.63128350  0.73524750  0.06703861    -0.05900
C1737       C  0.63588827  0.76074821  0.11291086     0.00000
C1738       C  0.61641006  0.73706607  0.15069684    -0.08500
C1739       C  0.62080309  0.76362010  0.20061088     0.61900
H1740       H  0.57747429  0.66893792  0.16937805     0.12600
H1741       H  0.64630515  0.75417025  0.03861600     0.12600
C1742       C  0.60037799  0.65971002  0.00627941     0.62200
F1743       F  0.59945803  0.73399923  0.23221618    -0.23000
F1744       F  0.60663220  0.78961283  0.19719966    -0.20300
F1745       F  0.66054933  0.79305294  0.21956020    -0.20000
F1746       F  0.56188524  0.63834226  0.98578296    -0.20100
F1747       F  0.61641404  0.62452453  0.50880382    -0.20400
F1748       F  0.63028127  0.68068057  0.46924434    -0.23100
C1749       C  0.82926490  0.45091942  0.05874107    -0.05900
C1750       C  0.84676410  0.94433932  0.10295884     0.00000
C1751       C  0.82935805  0.92465371  0.14382003    -0.08600
C1752       C  0.78911259  0.90633095  0.14726136    -0.05900
C1753       C  0.76601092  0.90668032  0.11122734     0.00000
C1754       C  0.78328191  0.92609681  0.07032005    -0.08500
C1755       C  0.76647907  0.43622938  0.02216659     0.61900
H1756       H  0.84409697  0.46878360  0.02967309     0.12600
H1757       H  0.77491166  0.89042942  0.17769051     0.12600
C1758       C  0.85188610  0.91959028  0.18158494     0.62200
F1759       F  0.79008843  0.45801581  0.98691976    -0.23000
F1760       F  0.75434648  0.46291389  0.04316794    -0.20300
F1761       F  0.72781758  0.87902283  0.00951174    -0.20000
F1762       F  0.88524868  0.96291648  0.20377300    -0.20100
F1763       F  0.86318794  0.89249035  0.15928757    -0.20400
F1764       F  0.82877500  0.89805827  0.21732222    -0.23100
C1765       C  0.60683695  0.87683229  0.09441799    -0.05900
C1766       C  0.64598163  0.90442526  0.11820440     0.00000
C1767       C  0.66398690  0.95217703  0.13890358    -0.08600
C1768       C  0.64219987  0.97033305  0.13401976    -0.05900
C1769       C  0.60379367  0.94306198  0.10860913     0.00000
C1770       C  0.58542204  0.89527402  0.08898583    -0.08500
C1771       C  0.54306296  0.86340982  0.06356261     0.61900
H1772       H  0.59327667  0.84053767  0.07871402     0.12600
H1773       H  0.65584141  0.00693544  0.14829716     0.12600
C1774       C  0.70596967  0.98451364  0.16554282     0.62200
F1775       F  0.53975437  0.82537286  0.51622452    -0.23000
F1776       F  0.54134841  0.87576828  0.02009470    -0.20300
F1777       F  0.52188586  0.86710725  0.55940695    -0.20000
F1778       F  0.73337372  0.99488902  0.13272686    -0.20100
F1779       F  0.71079269  0.96364154  0.19940517    -0.20400
F1780       F  0.71408137  0.02628335  0.18989575    -0.23100
C1781       C  0.90171886  0.59437977  0.27618338    -0.05900
C1782       C  0.93174049  0.61072742  0.31413442     0.00000
C1783       C  0.94228727  0.64960362  0.35070800    -0.08600
C1784       C  0.91956448  0.66712950  0.35028500    -0.05900
C1785       C  0.88903738  0.64965569  0.31300431     0.00000
C1786       C  0.88159340  0.61471307  0.27366283    -0.08500
C1787       C  0.85428582  0.59877618  0.22738960     0.61900
H1788       H  0.89033027  0.06273492  0.25848680     0.12600
H1789       H  0.92595399  0.69546501  0.37878588     0.12600
C1790       C  0.97851960  0.67460145  0.38824061     0.62200
F1791       F  0.87100422  0.09735606  0.19607171    -0.23000
F1792       F  0.84006487  0.62492022  0.22486264    -0.20300
F1793       F  0.82222200  0.55253830  0.22364999    -0.20000
F1794       F  0.01171145  0.68755822  0.36486034    -0.20100
F1795       F  0.97333108  0.64599158  0.41942659    -0.20400
F1796       F  0.98570145  0.71474921  0.41597920    -0.23100
C1797       C  0.92839512  0.80286590  0.28156979    -0.05900
C1798       C  0.88854144  0.78161244  0.29025545     0.00000
C1799       C  0.87248767  0.80734037  0.28841198    -0.08600
C1800       C  0.89879607  0.85526388  0.28652080    -0.05900
C1801       C  0.93969978  0.87742646  0.28443322     0.00000
C1802       C  0.95373769  0.84957170  0.27693755    -0.08500
C1803       C  0.99589640  0.86842181  0.26731403     0.61900
H1804       H  0.94077121  0.78332478  0.27985663     0.12600
H1805       H  0.88792290  0.87645061  0.28975286     0.12600
C1806       C  0.82847800  0.78573777  0.28922377     0.62200
F1807       F  0.99714672  0.83403114  0.23920424    -0.23000
F1808       F  0.51794713  0.86989670  0.29619015    -0.20300
F1809       F  0.51344773  0.91115990  0.24736087    -0.20000
F1810       F  0.81783156  0.77682523  0.33472068    -0.20100
F1811       F  0.80601587  0.74475118  0.25484496    -0.20400
F1812       F  0.81942275  0.81519985  0.27859728    -0.23100
C1813       C  0.75704959  0.67158052  0.36208017    -0.05900
C1814       C  0.76875475  0.64417399  0.33894009     0.00000
C1815       C  0.73934050  0.59537590  0.32284915    -0.08600
C1816       C  0.69917569  0.57767369  0.32371642    -0.05900
C1817       C  0.68746113  0.60588694  0.34298073     0.00000
C1818       C  0.71669807  0.65282516  0.36577451    -0.08500
C1819       C  0.70556402  0.68274720  0.39356191     0.61900
H1820       H  0.77991791  0.70807103  0.37719886     0.12600
H1821       H  0.67614863  0.54106698  0.30894106     0.12600
C1822       C  0.74942775  0.56173921  0.30412720     0.62200
F1823       F  0.73863845  0.72828935  0.41031939    -0.23000
F1824       F  0.68737242  0.66407056  0.43310931    -0.20300
F1825       F  0.67970349  0.68400819  0.36426423    -0.20000
F1826       F  0.77292993  0.56293921  0.34003160    -0.20100
F1827       F  0.76926792  0.57384954  0.26374645    -0.20400
F1828       F  0.71569443  0.51602095  0.29116023    -0.23100
C1829       C  0.93514750  0.63300067  0.07590439    -0.05900
C1830       C  0.92902174  0.59830923  0.03775048     0.00000
C1831       C  0.89625787  0.58457619  0.50627508    -0.08600
C1832       C  0.87726400  0.60668883  0.50827168    -0.05900
C1833       C  0.89054533  0.64133736  0.03136232     0.00000
C1834       C  0.91655377  0.65504799  0.07336896    -0.08500
C1835       C  0.92498096  0.69309932  0.11534388     0.61900
H1836       H  0.95464902  0.64280869  0.10821996     0.12600
H1837       H  0.85814653  0.60029467  0.47714370     0.12600
C1838       C  0.89962152  0.05700568  0.46439499     0.62200
F1839       F  0.94442183  0.69426739  0.15614903    -0.23000
F1840       F  0.88982546  0.68560611  0.12783930    -0.20300
F1841       F  0.94883821  0.73614238  0.10203699    -0.20000
F1842       F  0.87745141  0.01066163  0.46826108    -0.20100
F1843       F  0.93736195  0.07178497  0.45418287    -0.20400
F1844       F  0.88143116  0.06013090  0.42549753    -0.23100
C1845       C  0.93767026  0.85403918  0.00275199    -0.05900
C1846       C  0.94723155  0.87964071  0.05026887     0.00000
C1847       C  0.93373025  0.85598585  0.08967124    -0.08600
C1848       C  0.90906979  0.80703305  0.07962386    -0.05900
C1849       C  0.89928867  0.78169914  0.03227787     0.00000
C1850       C  0.90631324  0.80114449  0.50314264    -0.08500
C1851       C  0.88718351  0.77099835  0.45297119     0.61900
H1852       H  0.94087439  0.86686866  0.47856523     0.12600
H1853       H  0.89781362  0.78789257  0.10883873     0.12600
C1854       C  0.94741999  0.88182602  0.14214368     0.62200
F1855       F  0.90124992  0.79731058  0.41712762    -0.23000
F1856       F  0.84636284  0.74793594  0.45011683    -0.20300
F1857       F  0.89514483  0.73830323  0.44421012    -0.20000
F1858       F  0.93262427  0.90749115  0.15349601    -0.20100
F1859       F  0.98856830  0.91146453  0.14950198    -0.20400
F1860       F  0.93459518  0.85131193  0.17381886    -0.23100
C1861       C  0.71119153  0.59246747  0.07960715    -0.05900
C1862       C  0.69004750  0.60274815  0.05206505     0.00000
C1863       C  0.70984268  0.63271885  0.01875700    -0.08600
C1864       C  0.74882706  0.64803769  0.01129935    -0.05900
C1865       C  0.76974931  0.63726163  0.03819839     0.00000
C1866       C  0.75108768  0.61003866  0.07406469    -0.08500
C1867       C  0.77330208  0.60081093  0.10750144     0.61900
H1868       H  0.69600701  0.57003718  0.10547074     0.12600
H1869       H  0.76403306  0.67019481  0.98520224     0.12600
C1870       C  0.69189192  0.65245285  0.99476970     0.62200
F1871       F  0.70986908  0.03030325  0.95747065    -0.23000
F1872       F  0.80915421  0.64229848  0.12816402    -0.20300
F1873       F  0.76883529  0.59529658  0.45414289    -0.20000
F1874       F  0.68250954  0.67484942  0.03021829    -0.20100
F1875       F  0.65817789  0.61722882  0.96372901    -0.20400
F1876       F  0.71833932  0.68498790  0.96827619    -0.23100
C1877       C  0.80758225  0.66209129  0.54513020     0.80100
N1878       N  0.83132097  0.70803957  0.54273790    -0.78200
C1879       C  0.87093729  0.73039759  0.54146601     0.82500
N1880       N  0.88731063  0.70747557  0.54432418    -0.78200
C1881       C  0.86405929  0.66180924  0.54730169     0.82600
N1882       N  0.82407314  0.63891087  0.54751249    -0.79900
C1883       C  0.80810996  0.66735744  0.82181335     0.80100
N1884       N  0.82644303  0.64577298  0.81933024    -0.78200
C1885       C  0.86462754  0.66819746  0.80837172     0.82500
N1886       N  0.88429839  0.71222197  0.80007500    -0.78200
C1887       C  0.86661298  0.73439799  0.80197474     0.82600
N1888       N  0.82870780  0.71162438  0.81320510    -0.79900
C1889       C  0.72424894  0.87949796  0.60176665     0.80100
N1890       N  0.70755469  0.90279121  0.60335246    -0.78200
C1891       C  0.66756534  0.87957269  0.60420433     0.82500
N1892       N  0.64449206  0.83284091  0.60287649    -0.78200
C1893       C  0.66094609  0.80954338  0.60176616     0.82600
N1894       N  0.70075847  0.83285256  0.60090835    -0.79900
C1895       C  0.72342614  0.88305810  0.85976490     0.80100
N1896       N  0.70598954  0.90550242  0.85924578    -0.78200
C1897       C  0.66598121  0.88182387  0.86123944     0.82500
N1898       N  0.64362718  0.83593974  0.86345852    -0.78200
C1899       C  0.66071503  0.81351277  0.86426622     0.82600
N1900       N  0.70045094  0.83696280  0.86189377    -0.79900
C1901       C  0.64100104  0.57658352  0.56381922     0.76300
Tb1902     Tb  0.96550861  0.51482421  0.56598158     1.80700
O1903       O  0.62647373  0.58118245  0.60148906    -0.51700
O1904       O  0.59087503  0.99676351  0.62763951    -0.59100
C1905       C  0.56052466  0.61006681  0.58215735     0.92100
O1906       O  0.96120749  0.57735349  0.59005352    -0.58700
Tb1907     Tb  0.55908307  0.51948832  0.57254466     1.78100
O1908       O  0.90338323  0.95763690  0.54974849    -0.59200
O1909       O  0.50661862  0.95305569  0.54431196    -0.78000
O1910       O  0.56972238  0.59018971  0.60651423    -0.77300
O1911       O  0.54692000  0.53220209  0.99627036    -0.62600
C1912       C  0.97448364  0.92919528  0.56123279     0.91700
O1913       O  0.49618726  0.53661777  0.65097486    -0.74500
C1914       C  0.88494400  0.46251199  0.58212605     0.75200
C1915       C  0.58796283  0.96732082  0.59345409     0.76200
O1916       O  0.61459662  0.54587326  0.52984423    -0.59800
O1917       O  0.57138613  0.96461594  0.55435478    -0.51700
O1918       O  0.47874484  0.49990719  0.49016832    -0.77800
O1919       O  0.53113514  0.50717303  0.64611321    -0.61800
C1920       C  0.51291625  0.52108255  0.67017867     0.90000
C1921       C  0.51382709  0.51669116  0.97242328     0.91200
C1922       C  0.93966883  0.56926902  0.55236967     0.75500
O1923       O  0.91349453  0.48951121  0.61546701    -0.51100
O1924       O  0.93735868  0.03661282  0.52969122    -0.52200
O1925       O  0.96522770  0.95208058  0.58856143    -0.65100
O1926       O  0.52794586  0.58706030  0.55506987    -0.66200
C1927       C  0.64053387  0.58400189  0.82500580     0.76300
Tb1928     Tb  0.96592301  0.51783436  0.81831683     1.82700
O1929       O  0.62221902  0.58768864  0.85902132    -0.51700
O1930       O  0.57558098  0.98538634  0.87795849    -0.59100
C1931       C  0.55725947  0.61218102  0.83469519     0.92100
O1932       O  0.96491899  0.58293937  0.84681186    -0.58700
Tb1933     Tb  0.55807887  0.52274475  0.82308060     1.78100
O1934       O  0.90331995  0.97492480  0.80109874    -0.59200
O1935       O  0.50290970  0.95260850  0.82970815    -0.78000
O1936       O  0.56474595  0.58799718  0.80642216    -0.77300
O1937       O  0.53171125  0.50761538  0.74201777    -0.62600
C1938       C  0.96995216  0.93187818  0.80018333     0.91700
O1939       O  0.48036291  0.50239475  0.89509618    -0.74500
C1940       C  0.88616414  0.46176393  0.83583187     0.75200
C1941       C  0.58740133  0.97004434  0.84444652     0.76200
O1942       O  0.61764012  0.55294900  0.78861110    -0.59800
O1943       O  0.58438892  0.98034332  0.80455983    -0.51700
O1944       O  0.49126257  0.52986337  0.74674050    -0.77800
O1945       O  0.54611362  0.54007605  0.90220209    -0.61800
C1946       C  0.51327301  0.51955706  0.92025310     0.90000
C1947       C  0.51180826  0.51934465  0.72270142     0.91200
C1948       C  0.94325911  0.57754987  0.81114434     0.75500
O1949       O  0.91483324  0.47806541  0.86783448    -0.51100
O1950       O  0.94836077  0.05629872  0.78433639    -0.52200
O1951       O  0.95985726  0.95520731  0.78426121    -0.65100
O1952       O  0.52744945  0.59226195  0.85818988    -0.66200
C1953       C  0.58544089  0.69036534  0.88455887    -0.05900
C1954       C  0.58407025  0.66390035  0.84097613     0.00000
C1955       C  0.60817868  0.68742917  0.80500191    -0.08600
C1956       C  0.63408725  0.73648702  0.81551845    -0.05900
C1957       C  0.63523579  0.76244599  0.85898978     0.00000
C1958       C  0.61041104  0.73946688  0.89405310    -0.08500
C1959       C  0.61061558  0.76670795  0.94132829     0.61900
H1960       H  0.56636131  0.67226108  0.91110870     0.12600
H1961       H  0.65292684  0.75532802  0.78901687     0.12600
C1962       C  0.60519173  0.66190035  0.75454200     0.62200
F1963       F  0.58713187  0.73763398  0.97241762    -0.23000
F1964       F  0.59603705  0.79125036  0.93212188    -0.20300
F1965       F  0.64909295  0.79773954  0.96448909    -0.20000
F1966       F  0.56588622  0.63287394  0.73390705    -0.20100
F1967       F  0.61944296  0.63574760  0.75665283    -0.20400
F1968       F  0.62725092  0.69262700  0.72415656    -0.23100
C1969       C  0.82600895  0.95036923  0.81539421    -0.05900
C1970       C  0.84805401  0.94531499  0.84818871     0.00000
C1971       C  0.82884055  0.91920719  0.88473835    -0.08600
C1972       C  0.78855323  0.90126883  0.88841515    -0.05900
C1973       C  0.76674847  0.90715301  0.85599859     0.00000
C1974       C  0.78550170  0.93074366  0.81776209    -0.08500
C1975       C  0.76245455  0.93248856  0.77753879     0.61900
H1976       H  0.83803885  0.47233415  0.79139353     0.12600
H1977       H  0.77329919  0.88130121  0.91605683     0.12600
C1978       C  0.84937215  0.90699565  0.91707365     0.62200
F1979       F  0.78333924  0.46249864  0.75291247    -0.23000
F1980       F  0.74957100  0.95906490  0.79588992    -0.20300
F1981       F  0.73030375  0.88750088  0.75710567    -0.20000
F1982       F  0.88182474  0.94675768  0.94607146    -0.20100
F1983       F  0.86207928  0.88396837  0.88855807    -0.20400
F1984       F  0.82398054  0.87807416  0.94718307    -0.23100
C1985       C  0.61299310  0.92601077  0.80872549    -0.05900
C1986       C  0.60493448  0.94464773  0.85072517     0.00000
C1987       C  0.61500907  0.93975972  0.89658223    -0.08600
C1988       C  0.63633397  0.92061490  0.89875167    -0.05900
C1989       C  0.64567456  0.90397433  0.85670129     0.00000
C1990       C  0.63146309  0.90375731  0.81094695    -0.08500
C1991       C  0.63375812  0.87768301  0.76488994     0.61900
H1992       H  0.60383103  0.92799254  0.77371727     0.12600
H1993       H  0.64543657  0.91781458  0.93332206     0.12600
C1994       C  0.64142408  0.50292805  0.93438590     0.62200
F1995       F  0.61734560  0.88059955  0.72405890    -0.23000
F1996       F  0.61319359  0.83108063  0.76750463    -0.20300
F1997       F  0.67287744  0.89586208  0.75975903    -0.20000
F1998       F  0.60614120  0.48834785  0.95327585    -0.20100
F1999       F  0.65653722  0.54392473  0.91813023    -0.20400
F2000       F  0.66854132  0.51228312  0.97147139    -0.23100
C2001       C  0.58897746  0.68847600  0.62896121    -0.05900
C2002       C  0.58716847  0.66090519  0.58647202     0.00000
C2003       C  0.60899105  0.68203504  0.54847824    -0.08600
C2004       C  0.63378136  0.73101751  0.55554283    -0.05900
C2005       C  0.63541113  0.75863260  0.59799964     0.00000
C2006       C  0.61250873  0.73735003  0.63522319    -0.08500
C2007       C  0.61299685  0.76614286  0.68118483     0.61900
H2008       H  0.57082239  0.67119385  0.65664604     0.12600
H2009       H  0.65133680  0.74821420  0.52738828     0.12600
C2010       C  0.60572052  0.65302817  0.50070882     0.62200
F2011       F  0.59147089  0.73888167  0.71454435    -0.23000
F2012       F  0.59623163  0.78790515  0.67009232    -0.20300
F2013       F  0.65182320  0.79950128  0.70249003    -0.20000
F2014       F  0.56694936  0.62575393  0.47851203    -0.20100
F2015       F  0.60608377  0.62584542  0.00779912    -0.20400
F2016       F  0.62662925  0.68886109  0.97693434    -0.23100
C2017       C  0.81850941  0.43998552  0.55330648    -0.05900
C2018       C  0.84814674  0.93959124  0.59422893     0.00000
C2019       C  0.82864095  0.91597464  0.63207755    -0.08600
C2020       C  0.78830792  0.89802419  0.63402142    -0.05900
C2021       C  0.76748085  0.90367899  0.59993678     0.00000
C2022       C  0.78720173  0.92771070  0.56235930    -0.08500
C2023       C  0.75467528  0.42539173  0.51959159     0.61900
H2024       H  0.83152904  0.45388152  0.52169083     0.12600
H2025       H  0.77246590  0.87892195  0.66203237     0.12600
C2026       C  0.84958212  0.90750803  0.66838518     0.62200
F2027       F  0.77585174  0.44278788  0.48118000    -0.23000
F2028       F  0.74444764  0.45440371  0.53931883    -0.20300
F2029       F  0.73248345  0.89122722  0.50111811    -0.20000
F2030       F  0.88122746  0.94959186  0.69555075    -0.20100
F2031       F  0.86348101  0.88400278  0.64387628    -0.20400
F2032       F  0.82430433  0.88077130  0.69998597    -0.23100
C2033       C  0.61145896  0.87866140  0.57341017    -0.05900
C2034       C  0.64802993  0.90328594  0.60296371     0.00000
C2035       C  0.66357338  0.94807392  0.63104664    -0.08600
C2036       C  0.64147160  0.96614577  0.62885907    -0.05900
C2037       C  0.60583124  0.94231841  0.59779717     0.00000
C2038       C  0.59040864  0.89775506  0.56943391    -0.08500
C2039       C  0.55201562  0.87032397  0.53509877     0.61900
H2040       H  0.60003528  0.84460512  0.55192718     0.12600
H2041       H  0.65305871  0.00049828  0.64966603     0.12600
C2042       C  0.70348147  0.97742409  0.66242898     0.62200
F2043       F  0.52910645  0.81700252  0.05369453    -0.23000
F2044       F  0.55767166  0.89238975  0.49665651    -0.20300
F2045       F  0.51801353  0.86700464  0.09280310    -0.20000
F2046       F  0.73381190  0.99232512  0.63327755    -0.20100
F2047       F  0.70526805  0.95175813  0.69263733    -0.20400
F2048       F  0.70975788  0.01658545  0.69113385    -0.23100
C2049       C  0.89279218  0.58431770  0.77486420    -0.05900
C2050       C  0.92612580  0.60419816  0.80914576     0.00000
C2051       C  0.94112347  0.64776352  0.84013024    -0.08600
C2052       C  0.91960053  0.66682611  0.83906907    -0.05900
C2053       C  0.88543995  0.64574638  0.80606279     0.00000
C2054       C  0.87361736  0.60570174  0.77098004    -0.08500
C2055       C  0.84301178  0.58573537  0.72713455     0.61900
H2056       H  0.89207237  0.05713002  0.75385948     0.12600
H2057       H  0.92955201  0.69886543  0.86395117     0.12600
C2058       C  0.98077457  0.67569172  0.87186410     0.62200
F2059       F  0.86149813  0.07488602  0.68926873    -0.23000
F2060       F  0.83133850  0.61380857  0.72115361    -0.20300
F2061       F  0.80984439  0.54232247  0.73132744    -0.20000
F2062       F  0.00990283  0.68141932  0.84357876    -0.20100
F2063       F  0.97858709  0.65297122  0.90831674    -0.20400
F2064       F  0.99212178  0.71973029  0.89345806    -0.23100
C2065       C  0.93026741  0.80501560  0.78763246    -0.05900
C2066       C  0.88994612  0.78367628  0.79364380     0.00000
C2067       C  0.87477500  0.81046776  0.79207333    -0.08600
C2068       C  0.90171096  0.85839362  0.79059815    -0.05900
C2069       C  0.94253497  0.87999656  0.78925391     0.00000
C2070       C  0.95627930  0.85182881  0.78370923    -0.08500
C2071       C  0.99816022  0.86927482  0.77449900     0.61900
H2072       H  0.94235880  0.78520076  0.78647737     0.12600
H2073       H  0.89139633  0.88013568  0.79361447     0.12600
C2074       C  0.83126740  0.79059288  0.79431150     0.62200
F2075       F  0.99755963  0.83636982  0.74057817    -0.23000
F2076       F  0.51989212  0.87362854  0.80777764    -0.20300
F2077       F  0.51503429  0.91012453  0.75274909    -0.20000
F2078       F  0.82180620  0.78202427  0.84011982    -0.20100
F2079       F  0.80730852  0.74995613  0.75983344    -0.20400
F2080       F  0.82318893  0.82135998  0.78543248    -0.23100
C2081       C  0.75343999  0.67238449  0.84782613    -0.05900
C2082       C  0.76543733  0.64353484  0.83123479     0.00000
C2083       C  0.73571183  0.59435880  0.81969094    -0.08600
C2084       C  0.69546811  0.57727042  0.81821708    -0.05900
C2085       C  0.68383637  0.60691694  0.82960993     0.00000
C2086       C  0.71312051  0.65523647  0.84640599    -0.08500
C2087       C  0.70244245  0.68929475  0.85812029     0.61900
H2088       H  0.77602444  0.70910105  0.86042311     0.12600
H2089       H  0.67234655  0.54005899  0.80774549     0.12600
C2090       C  0.74548481  0.55955853  0.80871461     0.62200
F2091       F  0.73566046  0.73439514  0.87628649    -0.23000
F2092       F  0.67583188  0.67644802  0.89213060    -0.20300
F2093       F  0.68546070  0.68984320  0.81637723    -0.20000
F2094       F  0.77009034  0.56613595  0.84728078    -0.20100
F2095       F  0.76396278  0.56550071  0.76716043    -0.20400
F2096       F  0.71172821  0.51371481  0.80138320    -0.23100
C2097       C  0.92638454  0.62534646  0.58962595    -0.05900
C2098       C  0.92103306  0.59374467  0.54821384     0.00000
C2099       C  0.90413326  0.58615491  0.99457835    -0.08600
C2100       C  0.88483015  0.60764571  0.99267129    -0.05900
C2101       C  0.88264477  0.63770674  0.54975914     0.00000
C2102       C  0.90768966  0.64768577  0.59110905    -0.08500
C2103       C  0.91409960  0.68122103  0.63683785     0.61900
H2104       H  0.94518510  0.63226901  0.62136795     0.12600
H2105       H  0.86511908  0.59846649  0.96080254     0.12600
C2106       C  0.90090668  0.06216371  0.96085255     0.62200
F2107       F  0.93650075  0.68253331  0.67441787    -0.23000
F2108       F  0.87771683  0.66741158  0.65187142    -0.20300
F2109       F  0.93393044  0.72591631  0.62776943    -0.20000
F2110       F  0.87585738  0.01542816  0.96297459    -0.20100
F2111       F  0.93875630  0.07480124  0.95452784    -0.20400
F2112       F  0.88689710  0.06862462  0.92054384    -0.23100
C2113       C  0.93319602  0.85010163  0.50963274    -0.05900
C2114       C  0.94916850  0.87817590  0.55628813     0.00000
C2115       C  0.93897987  0.85723933  0.59766874    -0.08600
C2116       C  0.91327438  0.80848837  0.59079802    -0.05900
C2117       C  0.89690969  0.78077200  0.54454837     0.00000
C2118       C  0.91417876  0.80495392  0.99315280    -0.08500
C2119       C  0.90564176  0.77782943  0.94199252     0.61900
H2120       H  0.94883708  0.87281487  0.97329162     0.12600
H2121       H  0.90520245  0.79135040  0.62164211     0.12600
C2122       C  0.95560111  0.88581003  0.64890605     0.62200
F2123       F  0.92084968  0.80691642  0.90867016    -0.23000
F2124       F  0.86494822  0.74564527  0.92924113    -0.20300
F2125       F  0.92292146  0.75448603  0.93964758    -0.20000
F2126       F  0.94025861  0.91087518  0.66090756    -0.20100
F2127       F  0.99667651  0.91617709  0.65263178    -0.20400
F2128       F  0.94574764  0.85755250  0.68236249    -0.23100
C2129       C  0.69480939  0.57639140  0.52851543    -0.05900
C2130       C  0.68417102  0.60090808  0.56006059     0.00000
C2131       C  0.71458101  0.64584853  0.58715287    -0.08600
C2132       C  0.75452400  0.66432221  0.58101254    -0.05900
C2133       C  0.76483076  0.63939065  0.54928910     0.00000
C2134       C  0.73444908  0.59494107  0.52174727    -0.08500
C2135       C  0.74334882  0.56729010  0.48474638     0.61900
H2136       H  0.67165634  0.54127273  0.51025733     0.12600
H2137       H  0.77830139  0.69841307  0.60167574     0.12600
C2138       C  0.70535901  0.67438440  0.62210300     0.62200
F2139       F  0.75515831  0.10839368  0.67764088    -0.23000
F2140       F  0.76066854  0.55104244  0.50824674    -0.20300
F2141       F  0.78028689  0.57063254  0.08155670    -0.20000
F2142       F  0.68840816  0.65230410  0.66039318    -0.20100
F2143       F  0.67936011  0.67940460  0.59837819    -0.20400
F2144       F  0.73937311  0.71867362  0.64107902    -0.23100
loop_ 
_geom_bond_atom_site_label_1 
_geom_bond_atom_site_label_2 
_geom_bond_distance 
_geom_bond_site_symmetry_2 
_ccdc_geom_bond_type 
C1            N2   1.359       .  A
C1            N6   1.361       .  A
C1          C257   1.482       .  S
N2            C3   1.356       .  A
C3            N4   1.351       .  A
C3          C241   1.458       .  S
N4            C5   1.350       .  A
C5            N6   1.360       .  A
C5          C225   1.465       .  S
C7            N8   1.364       .  A
C7           N12   1.364       .  A
C7          C206   1.502       .  S
N8            C9   1.361       .  A
C9           N10   1.352       .  A
C9          C177   1.480       .  S
N10          C11   1.359       .  A
C11          N12   1.358       .  A
C11         C190   1.501       .  S
C13          N14   1.358       .  A
C13          N18   1.358       .  A
C13         C145   1.476       .  S
N14          C15   1.358       .  A
C15          N16   1.356       .  A
C15         C158   1.473       .  S
N16          C17   1.354       .  A
C17          N18   1.356       .  A
C17         C129   1.469       .  S
C19          N20   1.364       .  A
C19          N24   1.358       .  A
C19          C97   1.491       .  S
N20          C21   1.364       .  A
C21          N22   1.354       .  A
C21         C113   1.476       .  S
N22          C23   1.354       .  A
C23          N24   1.358       .  A
C23          C81   1.469       .  S
C25         C254   1.494       .  S
C25          O40   1.260       .  A
C25          O27   1.259       .  A
Tb26         O30   2.363       .  S
Tb26         O47   2.358       .  S
Tb26        O584   2.338       .  S
Tb26        O585   2.324   1_545  S
Tb26        O568   2.348   1_545  S
Tb26       O1114   2.367   1_554  S
Tb26       O1109   2.377       .  S
Tb26       O1122   2.328       .  S
O27         Tb31   2.366       .  S
O28          C39   1.260       .  A
O28        Tb567   2.349       .  S
C29         C126   1.467       .  S
C29          O34   1.269       .  A
C29          O50   1.264       .  A
O30          C46   1.268       .  A
Tb31         O40   2.363       .  S
Tb31         O34   2.346       .  S
Tb31         O43   2.356       .  S
Tb31        O564   2.361   1_545  S
Tb31        O303   2.357       .  S
Tb31        O577   2.351   1_545  S
Tb31        O569   2.341   1_545  S
O32         C574   1.263       .  A
O32        Tb562   2.342       .  S
O33        C1108   1.265   1_455  A
O33        Tb567   2.342       .  S
O35          C45   1.278       .  A
O35        Tb299   2.368       .  S
C36         C238   1.470       .  S
C36          O49   1.262       .  A
C36        O1105   1.266       .  A
O37          C44   1.279   1_655  A
O37       Tb1098   2.370       .  S
C38         C678   1.480       .  S
C38          O47   1.263   1_565  A
C38         O568   1.264       .  A
C39         C161   1.481       .  S
C39          O41   1.259       .  A
O41        Tb567   2.355       .  S
O42         C313   1.281   1_655  A
O42       Tb1098   2.375   1_556  S
O43          C44   1.274       .  A
C44          C71   1.487       .  S
C45          C70   1.489       .  S
C45         O310   1.278   1_445  A
C46         C222   1.491       .  S
C46         O584   1.260       .  A
O48         C582   1.260       .  A
O48        Tb562   2.345       .  S
O49        Tb562   2.328       .  S
O50       Tb1098   2.333   1_455  S
C51         C209   1.477       .  S
C51          O66   1.262       .  A
C51          O53   1.265       .  A
Tb52         O56   2.379       .  S
Tb52         O73   2.368   1_545  S
Tb52        O610   2.366       .  S
Tb52        O611   2.344   1_545  S
Tb52        O594   2.338   1_545  S
Tb52       O1140   2.370       .  S
Tb52       O1135   2.378       .  S
Tb52       O1148   2.341       .  S
O53         Tb57   2.359       .  S
O54          C65   1.261       .  A
O54        Tb593   2.344       .  S
C55          C78   1.484       .  S
C55          O60   1.260       .  A
C55          O76   1.267       .  A
O56          C72   1.260       .  A
Tb57         O61   2.366       .  S
Tb57         O66   2.341       .  S
Tb57         O60   2.327       .  S
Tb57         O69   2.355       .  S
Tb57        O590   2.353   1_545  S
Tb57        O603   2.355   1_545  S
Tb57        O595   2.342   1_545  S
O58         C600   1.257       .  A
O58        Tb588   2.337       .  S
O59        C1134   1.269   1_455  A
O59        Tb593   2.345       .  S
O61          C71   1.280       .  A
C62         C193   1.484       .  S
C62          O75   1.269       .  A
C62        O1131   1.268       .  A
O63          C70   1.275   1_655  A
O63       Tb1124   2.371       .  S
C64         C630   1.476       .  S
C64          O73   1.260       .  A
C64         O594   1.257       .  A
C65         C110   1.491       .  S
C65          O67   1.265       .  A
O67        Tb593   2.352       .  S
O68          C71   1.278   1_655  A
O68       Tb1124   2.373       .  S
O69          C70   1.274       .  A
C72         C174   1.499       .  S
C72         O610   1.258       .  A
O74         C608   1.260       .  A
O74        Tb588   2.357       .  S
O75        Tb588   2.350       .  S
O76       Tb1124   2.340   1_455  S
C77          C78   1.406       .  A
C77          C82   1.405       .  A
C77          H84   1.083       .  S
C78          C79   1.425       .  A
C79          C80   1.403       .  A
C79          C86   1.525       .  S
C80          C81   1.398       .  A
C80          H85   1.084       .  S
C81          C82   1.413       .  A
C82          C83   1.519       .  S
C83          F87   1.385       .  S
C83          F88   1.382       .  S
C83          F89   1.382       .  S
C86          F90   1.383       .  S
C86          F91   1.380       .  S
C86          F92   1.384       .  S
C93          C94   1.402       .  A
C93          C98   1.403       .  A
C93         H636   1.083       .  S
C94         C600   1.481       .  S
C94          C95   1.415       .  A
C95          C96   1.412       .  A
C95         C102   1.518       .  S
C96          C97   1.410       .  A
C96         H101   1.083       .  S
C97          C98   1.420       .  A
C98          C99   1.516       .  S
C99         F104   1.381       .  S
C99         F105   1.381       .  S
C99         F639   1.385       .  S
H100        C629   1.083       .  S
C102        F106   1.381       .  S
C102        F107   1.384       .  S
C102        F108   1.385       .  S
F103        C635   1.384       .  S
C109        C110   1.403       .  A
C109        C114   1.403       .  A
C109        H116   1.078       .  S
C110        C111   1.424       .  A
C111        C112   1.411       .  A
C111        C654   1.512       .  S
C112        C113   1.397       .  A
C112        H117   1.081       .  S
C113        C114   1.412       .  A
C114        C115   1.508       .  S
C115        F119   1.385       .  S
C115        F120   1.381       .  S
C115        F121   1.375       .  S
C118        C647   1.514   1_545  S
C118        F122   1.381   1_545  S
C118        F123   1.380       .  S
C118        F124   1.385       .  S
C125        C126   1.397       .  A
C125        C130   1.404       .  A
C125        H132   1.083       .  S
C126        C127   1.415       .  A
C127        C128   1.403       .  A
C127        C134   1.514       .  S
C128        C129   1.399       .  A
C128        H133   1.083       .  S
C129        C130   1.415       .  A
C130        C131   1.512       .  S
C131        F135   1.385       .  S
C131        F136   1.382       .  S
C131        F137   1.382       .  S
C134        F138   1.381   1_554  S
C134        F407   1.380       .  S
C134        F408   1.384   1_554  S
F139        C402   1.375       .  S
F140        C402   1.383       .  S
C141        C678   1.405       .  A
C141        C682   1.406       .  A
C141        H148   1.083       .  S
C142        C574   1.474       .  S
C142        C143   1.414       .  A
C142        C677   1.401       .  A
C143        C144   1.406       .  A
C143        C150   1.515       .  S
C144        C145   1.405       .  A
C144        H149   1.083       .  S
C145        C146   1.417       .  A
C146        C677   1.403       .  A
C146        C683   1.520       .  S
C147        C682   1.519       .  S
C147        F151   1.384   1_554  S
C147        F152   1.383       .  S
C147        F689   1.384       .  S
C150        F154   1.382       .  S
C150        F155   1.382       .  S
C150        F156   1.385       .  S
F153        C683   1.383   1_556  S
C157        C158   1.402       .  A
C157        C162   1.405       .  A
C157        H164   1.084       .  S
C158        C159   1.414       .  A
C159        C160   1.405       .  A
C159        C166   1.519       .  S
C160        C161   1.407       .  A
C160        H165   1.083       .  S
C161        C162   1.419       .  A
C162        C163   1.519       .  S
C163        F168   1.381   1_554  S
C163        F435   1.385   1_554  S
C163        F437   1.383       .  S
C166        F170   1.382       .  S
C166        F171   1.380       .  S
C166        F172   1.383       .  S
F167        C431   1.385       .  S
F169        C431   1.381       .  S
C173        C174   1.410       .  A
C173        C178   1.409       .  A
C173        H716   1.084       .  S
C174        C175   1.422       .  A
C175        C176   1.411       .  A
C175        C182   1.517       .  S
C176        C177   1.403       .  A
C176        H181   1.083       .  S
C177        C178   1.417       .  A
C178        C179   1.521       .  S
C179        F184   1.382       .  S
C179        F185   1.381       .  S
C179        F719   1.384       .  S
H180        C709   1.085       .  S
C182        F186   1.382       .  S
C182        F187   1.379       .  S
C182        F188   1.385       .  S
F183        C715   1.385       .  S
C189        C190   1.407       .  A
C189        C194   1.396       .  A
C189        H196   1.083       .  S
C190        C191   1.429       .  A
C191        C192   1.412       .  A
C191        C198   1.516       .  S
C192        C193   1.402       .  A
C192        H197   1.083       .  S
C193        C194   1.414       .  A
C194        C195   1.514       .  S
C195        F199   1.385       .  S
C195       F1272   1.380       .  S
C195       F1273   1.381       .  S
C198        F202   1.378       .  S
C198        F203   1.384       .  S
C198        F204   1.385       .  S
F200       C1267   1.379   1_455  S
F201       C1267   1.381   1_455  S
C205        C206   1.413       .  A
C205        C210   1.409       .  A
C205        H212   1.077       .  S
C206        C207   1.424       .  A
C207        C208   1.407       .  A
C207        C214   1.520       .  S
C208        C209   1.403       .  A
C208        H213   1.083       .  S
C209        C210   1.409       .  A
C210        C211   1.519       .  S
C211        F215   1.384       .  S
C211        F216   1.381       .  S
C211        F217   1.379       .  S
C214        F218   1.383       .  S
C214        F219   1.381       .  S
C214        F220   1.385       .  S
C221        C222   1.408       .  A
C221        C226   1.407       .  A
C221        H228   1.082       .  S
C222        C491   1.427       .  A
C223        C224   1.405       .  A
C223        C490   1.426       .  A
C223        C766   1.520       .  S
C224        C493   1.397       .  A
C224        H229   1.084       .  S
C225        C226   1.413       .  A
C225        C492   1.392       .  A
C226        C227   1.520       .  S
C227        F231   1.385       .  S
C227        F232   1.383       .  S
C227        F233   1.383       .  S
C230        C759   1.519       .  S
C230        F234   1.380       .  S
C230        F235   1.382       .  S
C230        F236   1.385       .  S
C237        C238   1.405       .  A
C237        C510   1.407   1_554  A
C237        H512   1.083   1_554  S
C238        C239   1.418       .  A
C239        C240   1.398       .  A
C239        C246   1.518       .  S
C240        C241   1.394       .  A
C240        H245   1.084       .  S
C241        C510   1.409   1_554  A
C242        C505   1.408       .  A
C242        C509   1.410       .  A
C242        C243   1.516       .  S
C243        F247   1.384       .  S
C243        F248   1.384       .  S
C243        F249   1.383       .  S
H244        C505   1.084       .  S
C246        F250   1.380       .  S
C246        F251   1.383       .  S
C246        F252   1.381       .  S
C253        C254   1.406       .  A
C253        C258   1.406       .  A
C253        H260   1.078       .  S
C254        C255   1.420       .  A
C255        C256   1.409       .  A
C255        C262   1.519       .  S
C256        C257   1.405       .  A
C256        H261   1.084       .  S
C257        C258   1.413       .  A
C258        C259   1.522   1_554  S
C259        F264   1.382   1_556  S
C259        F799   1.384       .  S
C259        F533   1.384       .  S
C262        F266   1.382       .  S
C262        F267   1.382       .  S
C262        F268   1.384       .  S
F263        C795   1.383       .  S
F265        C527   1.382       .  S
C269        N270   1.356       .  A
C269        N274   1.362       .  A
C269        C525   1.481       .  S
N270        C271   1.352       .  A
C271        N272   1.352       .  A
C271        C509   1.457       .  S
N272        C273   1.354       .  A
C273        N274   1.363       .  A
C273        C493   1.467       .  S
C275        N276   1.361       .  A
C275        N280   1.362       .  A
C275        C474   1.492       .  S
N276        C277   1.360       .  A
C277        N278   1.352       .  A
C277        C445   1.475       .  S
N278        C279   1.358       .  A
C279        N280   1.357       .  A
C279        C458   1.502       .  S
C281        N282   1.358       .  A
C281        N286   1.355       .  A
C281        C413   1.471       .  S
N282        C283   1.359       .  A
C283        N284   1.357       .  A
C283        C426   1.482       .  S
N284        C285   1.354       .  A
C285        N286   1.353       .  A
C285        C397   1.462       .  S
C287        N288   1.361       .  A
C287        N292   1.354       .  A
C287        C365   1.481       .  S
N288        C289   1.361       .  A
C289        N290   1.356       .  A
C289        C381   1.474       .  S
N290        C291   1.355       .  A
C291        N292   1.353       .  A
C291        C349   1.466       .  S
C293        C522   1.490       .  S
C293        O308   1.260       .  A
C293        O295   1.258       .  A
Tb294       O852   2.330       .  S
Tb294       O853   2.318   1_545  S
Tb294       O836   2.347   1_545  S
Tb294      O1382   2.363   1_545  S
Tb294      O1377   2.373       .  S
Tb294       O298   2.357       .  S
Tb294      O1390   2.319       .  S
Tb294       O315   2.348   1_545  S
O295       Tb299   2.362       .  S
O296        C307   1.261       .  A
O296       Tb835   2.347       .  S
C297        C394   1.467       .  S
C297        O302   1.267       .  A
C297        O318   1.262       .  A
O298        C314   1.268       .  A
Tb299       O832   2.353   1_545  S
Tb299       O308   2.374       .  S
Tb299       O302   2.344       .  S
Tb299       O845   2.362   1_545  S
Tb299       O311   2.376       .  S
Tb299       O837   2.348   1_545  S
O300        C842   1.264       .  A
O300       Tb830   2.345       .  S
O301       C1376   1.265       .  A
O301       Tb835   2.339   1_655  S
O303        C313   1.276   1_554  A
C304        C506   1.467       .  S
C304       O1373   1.263       .  A
C304        O317   1.262       .  A
O305        C312   1.280       .  A
O305      Tb1366   2.369   1_455  S
C306        C946   1.472       .  S
C306        O836   1.263       .  A
C306        O315   1.261       .  A
C307        C429   1.475       .  S
C307        O309   1.258       .  A
O309       Tb835   2.353       .  S
O310      Tb1366   2.368   1_565  S
O311        C312   1.279       .  A
C312        C339   1.495       .  S
C313        C338   1.485       .  S
C314        C490   1.485       .  S
C314        O852   1.258       .  A
O316        C850   1.259       .  A
O316       Tb830   2.339       .  S
O317       Tb830   2.326       .  S
O318      Tb1366   2.329   1_455  S
C319        C477   1.475       .  S
C319        O334   1.260       .  A
C319        O321   1.265       .  A
Tb320       O878   2.343       .  S
Tb320       O879   2.348   1_545  S
Tb320       O862   2.341   1_545  S
Tb320      O1408   2.366       .  S
Tb320      O1403   2.356       .  S
Tb320       O324   2.373       .  S
Tb320      O1416   2.352       .  S
Tb320       O341   2.381   1_545  S
O321       Tb325   2.375       .  S
O322        C333   1.261       .  A
O322       Tb861   2.350       .  S
C323        C346   1.488       .  S
C323        O328   1.259       .  A
C323        O344   1.268       .  A
O324        C340   1.261       .  A
Tb325       O858   2.341   1_545  S
Tb325       O329   2.372       .  S
Tb325       O334   2.326       .  S
Tb325       O328   2.321       .  S
Tb325       O871   2.355   1_545  S
Tb325       O337   2.356       .  S
Tb325       O863   2.343   1_545  S
O326        C868   1.258       .  A
O326       Tb856   2.337       .  S
O327       C1402   1.269       .  A
O327       Tb861   2.345   1_655  S
O329        C339   1.280       .  A
C330        C461   1.484       .  S
C330       O1399   1.270       .  A
C330        O343   1.269       .  A
O331        C338   1.273   1_655  A
O331      Tb1392   2.362       .  S
C332        C898   1.485       .  S
C332        O862   1.258       .  A
C332        O341   1.261       .  A
C333        C378   1.482       .  S
C333        O335   1.264       .  A
O335       Tb861   2.345       .  S
O336        C339   1.279   1_655  A
O336      Tb1392   2.376       .  S
O337        C338   1.275       .  A
C340        C442   1.487       .  S
C340        O878   1.259       .  A
O342        C876   1.260       .  A
O342       Tb856   2.361       .  S
O343       Tb856   2.347       .  S
O344      Tb1392   2.351   1_455  S
C345        C346   1.410       .  A
C345        C350   1.406       .  A
C345        H352   1.083       .  S
C346        C347   1.428       .  A
C347        C348   1.402       .  A
C347        C354   1.525       .  S
C348        C349   1.397       .  A
C348        H353   1.084       .  S
C349        C350   1.409       .  A
C350        C351   1.518       .  S
C351        F355   1.384       .  S
C351        F356   1.382       .  S
C351        F357   1.384       .  S
C354        F358   1.383       .  S
C354        F359   1.382       .  S
C354        F360   1.385       .  S
C361        C362   1.403       .  A
C361        C366   1.402       .  A
C361        H904   1.084       .  S
C362        C868   1.476       .  S
C362        C363   1.415       .  A
C363        C364   1.409       .  A
C363        C370   1.520       .  S
C364        C365   1.408       .  A
C364        H369   1.083       .  S
C365        C366   1.417       .  A
C366        C367   1.519       .  S
C367        F907   1.384       .  S
C367        F372   1.381       .  S
C367        F373   1.382       .  S
H368        C897   1.083       .  S
C370        F374   1.379       .  S
C370        F375   1.381       .  S
C370        F376   1.385       .  S
F371        C903   1.384       .  S
C377        C378   1.402       .  A
C377        C382   1.402       .  A
C377        H384   1.077       .  S
C378        C379   1.422       .  A
C379        C380   1.410       .  A
C379        C922   1.519       .  S
C380        C381   1.401       .  A
C380        H385   1.078       .  S
C381        C382   1.415       .  A
C382        C383   1.517       .  S
C383        F387   1.386       .  S
C383        F388   1.382       .  S
C383        F389   1.381       .  S
C386        C915   1.513       .  S
C386        F390   1.383       .  S
C386        F391   1.382   1_565  S
C386        F392   1.385       .  S
C393        C394   1.400       .  A
C393        C398   1.404       .  A
C393        H400   1.084       .  S
C394        C395   1.417       .  A
C395        C396   1.401       .  A
C395        C402   1.515       .  S
C396        C397   1.397       .  A
C396        H401   1.084       .  S
C397        C398   1.412       .  A
C398        C399   1.514       .  S
C399        F403   1.383       .  S
C399        F404   1.381       .  S
C399        F405   1.383       .  S
C402        F406   1.382       .  S
C409        C946   1.403       .  A
C409        C950   1.406       .  A
C409        H416   1.083       .  S
C410        C842   1.474       .  S
C410        C945   1.404       .  A
C410        C411   1.416       .  A
C411        C412   1.406       .  A
C411        C418   1.517       .  S
C412        C413   1.403       .  A
C412        H417   1.083       .  S
C413        C414   1.415       .  A
C414        C945   1.404       .  A
C414        C951   1.520       .  S
C415        C950   1.521       .  S
C415        F419   1.384       .  S
C415        F420   1.382       .  S
C415        F957   1.383       .  S
C418        F422   1.382       .  S
C418        F423   1.382       .  S
C418        F424   1.385       .  S
F421        C951   1.383       .  S
C425        C426   1.408       .  A
C425        C430   1.406       .  A
C425        H432   1.084       .  S
C426        C427   1.419       .  A
C427        C428   1.404       .  A
C427        C434   1.520       .  S
C428        C429   1.402       .  A
C428        H433   1.084       .  S
C429        C430   1.415       .  A
C430        C431   1.518       .  S
C431        F436   1.380       .  S
C434        F438   1.382       .  S
C434        F439   1.384       .  S
C434        F440   1.384       .  S
C441        C442   1.406       .  A
C441        C446   1.401       .  A
C441        H984   1.085       .  S
C442        C443   1.421       .  A
C443        C444   1.410       .  A
C443        C450   1.517       .  S
C444        C445   1.403       .  A
C444        H449   1.083       .  S
C445        C446   1.414       .  A
C446        C447   1.517       .  S
C447        F987   1.385       .  S
C447        F452   1.381       .  S
C447        F453   1.381       .  S
H448        C977   1.085       .  S
C450        F454   1.382       .  S
C450        F455   1.381       .  S
C450        F456   1.385       .  S
F451        C983   1.384       .  S
C457        C458   1.408       .  A
C457        C462   1.397       .  A
C457        H464   1.083       .  S
C458        C459   1.430       .  A
C459        C460   1.414       .  A
C459        C466   1.520       .  S
C460        C461   1.403       .  A
C460        H465   1.083       .  S
C461        C462   1.413       .  A
C462        C463   1.515       .  S
C463        F467   1.385       .  S
C463       F1540   1.380       .  S
C463       F1541   1.381       .  S
C466        F470   1.381       .  S
C466        F471   1.384       .  S
C466        F472   1.385       .  S
F468       C1535   1.379   1_455  S
F469       C1535   1.381   1_455  S
C473        C474   1.411       .  A
C473        C478   1.409       .  A
C473        H480   1.081       .  S
C474        C475   1.422       .  A
C475        C476   1.403       .  A
C475        C482   1.518       .  S
C476        C477   1.402       .  A
C476        H481   1.084       .  S
C477        C478   1.409       .  A
C478        C479   1.515       .  S
C479        F483   1.382       .  S
C479        F484   1.382       .  S
C479        F485   1.384       .  S
C482        F486   1.382       .  S
C482        F487   1.379       .  S
C482        F488   1.385       .  S
C489        C490   1.406       .  A
C489        C494   1.405       .  A
C489        H496   1.083       .  S
C491        C492   1.403       .  A
C491       C1034   1.515   1_554  S
C492        H497   1.083   1_554  S
C493        C494   1.412       .  A
C494        C495   1.518       .  S
C495        F499   1.385       .  S
C495        F500   1.381       .  S
C495        F501   1.383       .  S
C498       C1027   1.518   1_556  S
C498        F502   1.377       .  S
C498        F503   1.382       .  S
C498        F504   1.385       .  S
C505        C506   1.406       .  A
C506        C507   1.417       .  A
C507        C508   1.396       .  A
C507        C514   1.518       .  S
C508        C509   1.393       .  A
C508        H513   1.085       .  S
C510        C511   1.514       .  S
C511        F515   1.384       .  S
C511        F516   1.382       .  S
C511        F517   1.383       .  S
C514        F518   1.379       .  S
C514        F519   1.381       .  S
C514        F520   1.380       .  S
C521        C522   1.409       .  A
C521        C526   1.410       .  A
C521        H528   1.082       .  S
C522        C523   1.418       .  A
C523        C524   1.405       .  A
C523        C530   1.515       .  S
C524        C525   1.401       .  A
C524        H529   1.083       .  S
C525        C526   1.416       .  A
C526        C527   1.518       .  S
C527       F1067   1.385       .  S
C527        F532   1.384       .  S
C530        F534   1.382       .  S
C530        F535   1.378       .  S
C530        F536   1.384       .  S
F531       C1063   1.384       .  S
C537        N538   1.355       .  A
C537        N542   1.360       .  A
C537        C793   1.481       .  S
N538        C539   1.352       .  A
C539        N540   1.353       .  A
C539        C777   1.456       .  S
N540        C541   1.354       .  A
C541        N542   1.361       .  A
C541        C761   1.468       .  S
C543        N544   1.363       .  A
C543        N548   1.361       .  A
C543        C742   1.497       .  S
N544        C545   1.361       .  A
C545        N546   1.353       .  A
C545        C713   1.479       .  S
N546        C547   1.359       .  A
C547        N548   1.357       .  A
C547        C726   1.501       .  S
C549        N550   1.361       .  A
C549        N554   1.355       .  A
C549        C681   1.474       .  S
N550        C551   1.361       .  A
C551        N552   1.357       .  A
C551        C694   1.485       .  S
N552        C553   1.354       .  A
C553        N554   1.354       .  A
C553        C665   1.465       .  S
C555        N556   1.361       .  A
C555        N560   1.356       .  A
C555        C633   1.485       .  S
N556        C557   1.360       .  A
C557        N558   1.355       .  A
C557        C649   1.474       .  S
N558        C559   1.354       .  A
C559        N560   1.356       .  A
C559        C617   1.467       .  S
C561        C790   1.487       .  S
C561        O576   1.261       .  A
C561        O563   1.257       .  A
Tb562      O1650   2.360   1_554  S
Tb562      O1645   2.359       .  S
Tb562       O566   2.355       .  S
Tb562      O1658   2.334       .  S
Tb562       O583   2.358       .  S
O563       Tb567   2.359       .  S
O564        C575   1.262       .  A
C565        C662   1.465       .  S
C565        O570   1.263       .  A
C565        O586   1.262       .  A
O566        C582   1.267       .  A
Tb567       O839   2.385   1_554  S
Tb567       O576   2.372       .  S
Tb567       O570   2.332       .  S
Tb567       O579   2.373       .  S
O569       C1644   1.266   1_455  A
O571        C581   1.278       .  A
O571       Tb835   2.362       .  S
C572        C774   1.465       .  S
C572       O1641   1.265       .  A
C572        O585   1.263       .  A
O573        C580   1.279       .  A
O573      Tb1634   2.368   1_455  S
C574        O583   1.262       .  A
C575        C697   1.484       .  S
C575        O577   1.259       .  A
O578        C849   1.275   1_655  A
O578      Tb1634   2.359   1_556  S
O579        C580   1.277       .  A
C580        C607   1.494       .  S
C581        C606   1.484       .  S
C581        O846   1.280   1_455  A
C582        C758   1.491       .  S
O586      Tb1634   2.337   1_455  S
C587        C745   1.482       .  S
C587        O602   1.261       .  A
C587        O589   1.265       .  A
Tb588      O1676   2.372       .  S
Tb588      O1671   2.367       .  S
Tb588       O592   2.370       .  S
Tb588      O1684   2.347       .  S
Tb588       O609   2.373       .  S
O589       Tb593   2.379       .  S
O590        C601   1.262       .  A
C591        C614   1.487       .  S
C591        O596   1.260       .  A
C591        O612   1.267       .  A
O592        C608   1.260       .  A
Tb593       O597   2.374       .  S
Tb593       O602   2.336       .  S
Tb593       O596   2.318       .  S
Tb593       O605   2.350       .  S
O595       C1670   1.269   1_455  A
O597        C607   1.281       .  A
C598        C729   1.479       .  S
C598       O1667   1.269       .  A
C598        O611   1.268       .  A
O599        C606   1.274   1_655  A
O599      Tb1660   2.366       .  S
C600        O609   1.261       .  A
C601        C646   1.488       .  S
C601        O603   1.265       .  A
O604        C607   1.280   1_655  A
O604      Tb1660   2.378       .  S
O605        C606   1.274       .  A
C608        C710   1.492       .  S
O612      Tb1660   2.348   1_455  S
C613        C614   1.411       .  A
C613        C618   1.408       .  A
C613        H620   1.082       .  S
C614        C615   1.427       .  A
C615        C616   1.400       .  A
C615        C622   1.525       .  S
C616        C617   1.397       .  A
C616        H621   1.083       .  S
C617        C618   1.411       .  A
C618        C619   1.519       .  S
C619        F623   1.385       .  S
C619        F624   1.383       .  S
C619        F625   1.383       .  S
C622        F626   1.383       .  S
C622        F627   1.381       .  S
C622        F628   1.385       .  S
C629        C630   1.401       .  A
C629        C634   1.401       .  A
C630        C631   1.415       .  A
C631        C632   1.410       .  A
C631        C638   1.519       .  S
C632        C633   1.410       .  A
C632        H637   1.083       .  S
C633        C634   1.419       .  A
C634        C635   1.519       .  S
C635        F640   1.381       .  S
C635        F641   1.382       .  S
C638        F642   1.379       .  S
C638        F643   1.382       .  S
C638        F644   1.385       .  S
C645        C646   1.403       .  A
C645        C650   1.404       .  A
C645        H652   1.080       .  S
C646        C647   1.423       .  A
C647        C648   1.408       .  A
C648        C649   1.397       .  A
C648        H653   1.082       .  S
C649        C650   1.416       .  A
C650        C651   1.515       .  S
C651        F655   1.385       .  S
C651        F656   1.382       .  S
C651        F657   1.381       .  S
C654        F658   1.383       .  S
C654        F659   1.382       .  S
C654        F660   1.384       .  S
C661        C662   1.398       .  A
C661        C666   1.401       .  A
C661        H668   1.083       .  S
C662        C663   1.416       .  A
C663        C664   1.404       .  A
C663        C670   1.517       .  S
C664        C665   1.400       .  A
C664        H669   1.084       .  S
C665        C666   1.412       .  A
C666        C667   1.513       .  S
C667        F671   1.384       .  S
C667        F672   1.380       .  S
C667        F673   1.383       .  S
C670        F674   1.382   1_554  S
C670        F943   1.378   1_554  S
C670        F944   1.385   1_554  S
F675        C938   1.380       .  S
F676        C938   1.384       .  S
C677        H684   1.081       .  S
C678        C679   1.416       .  A
C679        C680   1.407       .  A
C679        C686   1.514       .  S
C680        C681   1.402       .  A
C680        H685   1.084       .  S
C681        C682   1.415       .  A
C683        F687   1.384   1_554  S
C683        F688   1.383       .  S
C686        F690   1.380       .  S
C686        F691   1.381       .  S
C686        F692   1.384       .  S
C693        C694   1.406       .  A
C693        C698   1.406       .  A
C693        H700   1.083       .  S
C694        C695   1.418       .  A
C695        C696   1.409       .  A
C695        C702   1.518       .  S
C696        C697   1.405       .  A
C696        H701   1.083       .  S
C697        C698   1.417       .  A
C698        C699   1.519       .  S
C699        F971   1.385       .  S
C699        F704   1.381       .  S
C699        F973   1.383       .  S
C702        F706   1.382       .  S
C702        F707   1.383       .  S
C702        F708   1.383   1_565  S
F703        C967   1.385       .  S
F705        C967   1.383       .  S
C709        C710   1.407       .  A
C709        C714   1.405       .  A
C710        C711   1.422       .  A
C711        C712   1.411       .  A
C711        C718   1.517       .  S
C712        C713   1.403       .  A
C712        H717   1.084       .  S
C713        C714   1.416       .  A
C714        C715   1.517       .  S
C715        F720   1.381       .  S
C715        F721   1.381       .  S
C718        F722   1.382       .  S
C718        F723   1.380       .  S
C718        F724   1.385       .  S
C725        C726   1.408       .  A
C725        C730   1.397       .  A
C725        H732   1.083       .  S
C726        C727   1.430       .  A
C727        C728   1.411       .  A
C727        C734   1.519       .  S
C728        C729   1.401       .  A
C728        H733   1.083       .  S
C729        C730   1.413       .  A
C730        C731   1.515       .  S
C731        F735   1.385       .  S
C731       F1808   1.379       .  S
C731       F1809   1.381       .  S
C734        F738   1.380       .  S
C734        F739   1.384       .  S
C734        F740   1.385       .  S
F736       C1803   1.378   1_455  S
F737       C1803   1.383   1_455  S
C741        C742   1.411       .  A
C741        C746   1.411       .  A
C741        H748   1.080       .  S
C742        C743   1.421       .  A
C743        C744   1.405       .  A
C743        C750   1.516       .  S
C744        C745   1.403       .  A
C744        H749   1.083       .  S
C745        C746   1.412       .  A
C746        C747   1.516       .  S
C747        F751   1.385       .  S
C747        F752   1.382       .  S
C747        F753   1.381       .  S
C750        F754   1.383       .  S
C750        F755   1.379       .  S
C750        F756   1.385       .  S
C757        C758   1.408       .  A
C757        C762   1.405       .  A
C757        H764   1.082       .  S
C758       C1027   1.428       .  A
C759       C1026   1.427       .  A
C759        C760   1.406       .  A
C760       C1029   1.396       .  A
C760        H765   1.083       .  S
C761       C1028   1.396       .  A
C761        C762   1.412       .  A
C762        C763   1.519       .  S
C763        F767   1.385       .  S
C763        F768   1.381       .  S
C763        F769   1.383       .  S
C766        F770   1.380       .  S
C766        F771   1.384       .  S
C766        F772   1.385       .  S
C773        C774   1.405       .  A
C773       C1046   1.407   1_554  A
C773       H1048   1.084   1_554  S
C774        C775   1.416       .  A
C775        C776   1.397       .  A
C775        C782   1.517       .  S
C776        C777   1.393       .  A
C776        H781   1.084       .  S
C777       C1046   1.410   1_554  A
C778       C1041   1.404       .  A
C778       C1045   1.411       .  A
C778        C779   1.516       .  S
C779        F783   1.385       .  S
C779        F784   1.383       .  S
C779        F785   1.383       .  S
H780       C1041   1.083       .  S
C782        F786   1.379       .  S
C782        F787   1.381       .  S
C782        F788   1.379       .  S
C789        C790   1.408       .  A
C789        C794   1.410       .  A
C789        H796   1.084       .  S
C790        C791   1.415       .  A
C791        C792   1.404       .  A
C791        C798   1.512   1_554  S
C792        C793   1.402       .  A
C792        H797   1.084   1_554  S
C793        C794   1.417       .  A
C794        C795   1.519       .  S
C795        F800   1.383       .  S
C795       F1069   1.382       .  S
C798        F802   1.382   1_556  S
C798        F803   1.380       .  S
C798        F804   1.384       .  S
F801       C1063   1.384       .  S
C805        N806   1.360       .  A
C805        N810   1.363       .  A
C805       C1061   1.491       .  S
N806        C807   1.356       .  A
C807        N808   1.350       .  A
C807       C1045   1.457       .  S
N808        C809   1.350       .  A
C809        N810   1.361       .  A
C809       C1029   1.468       .  S
C811        N812   1.362       .  A
C811        N816   1.362       .  A
C811       C1010   1.498       .  S
N812        C813   1.361       .  A
C813        N814   1.353       .  A
C813        C981   1.477       .  S
N814        C815   1.358       .  A
C815        N816   1.354       .  A
C815        C994   1.502       .  S
C817        N818   1.356       .  A
C817        N822   1.357       .  A
C817        C949   1.475       .  S
N818        C819   1.356       .  A
C819        N820   1.357       .  A
C819        C962   1.478       .  S
N820        C821   1.356       .  A
C821        N822   1.356       .  A
C821        C933   1.466       .  S
C823        N824   1.364       .  A
C823        N828   1.359       .  A
C823        C901   1.488       .  S
N824        C825   1.362       .  A
C825        N826   1.351       .  A
C825        C917   1.473       .  S
N826        C827   1.352       .  A
C827        N828   1.358       .  A
C827        C885   1.467       .  S
C829       C1058   1.490       .  S
C829        O844   1.260       .  A
C829        O831   1.258       .  A
Tb830      O1918   2.362       .  S
Tb830      O1913   2.374       .  S
Tb830       O834   2.357       .  S
Tb830      O1926   2.331       .  S
Tb830       O851   2.349       .  S
O831       Tb835   2.375       .  S
O832        C843   1.261       .  A
C833        C930   1.461       .  S
C833        O838   1.264       .  A
C833        O854   1.264       .  A
O834        C850   1.267       .  A
Tb835       O844   2.360       .  S
Tb835       O838   2.328       .  S
Tb835       O847   2.359       .  S
O837       C1912   1.266   1_455  A
O839        C849   1.281       .  A
C840       C1042   1.463       .  S
C840       O1909   1.264       .  A
C840        O853   1.260       .  A
O841        C848   1.280   1_655  A
O841      Tb1902   2.372       .  S
C842        O851   1.262       .  A
C843        C965   1.482       .  S
C843        O845   1.259       .  A
O846      Tb1902   2.370       .  S
O847        C848   1.276       .  A
C848        C875   1.489       .  S
C849        C874   1.492       .  S
C850       C1026   1.488       .  S
O854      Tb1902   2.339   1_455  S
C855       C1013   1.474       .  S
C855        O870   1.262       .  A
C855        O857   1.264       .  A
Tb856      O1944   2.373       .  S
Tb856      O1939   2.377       .  S
Tb856       O860   2.369       .  S
Tb856      O1952   2.348       .  S
Tb856       O877   2.367       .  S
O857       Tb861   2.353       .  S
O858        C869   1.261       .  A
C859        C882   1.482       .  S
C859        O864   1.257       .  A
C859        O880   1.267       .  A
O860        C876   1.260       .  A
Tb861       O865   2.368       .  S
Tb861       O870   2.336       .  S
Tb861       O864   2.317       .  S
Tb861       O873   2.348       .  S
O863       C1938   1.267   1_455  A
O865        C875   1.280       .  A
C866        C997   1.480       .  S
C866       O1935   1.266       .  A
C866        O879   1.269       .  A
O867        C874   1.279   1_655  A
O867      Tb1928   2.385       .  S
C868        O877   1.260       .  A
C869        C914   1.487       .  S
C869        O871   1.264       .  A
O872        C875   1.277   1_655  A
O872      Tb1928   2.373       .  S
O873        C874   1.272       .  A
C876        C978   1.492       .  S
O880      Tb1928   2.341   1_455  S
C881        C882   1.406       .  A
C881        C886   1.403       .  A
C881        H888   1.083       .  S
C882        C883   1.426       .  A
C883        C884   1.403       .  A
C883        C890   1.527       .  S
C884        C885   1.398       .  A
C884        H889   1.084       .  S
C885        C886   1.413       .  A
C886        C887   1.520       .  S
C887        F891   1.385       .  S
C887        F892   1.383       .  S
C887        F893   1.383       .  S
C890        F894   1.383       .  S
C890        F895   1.381       .  S
C890        F896   1.384       .  S
C897        C898   1.405       .  A
C897        C902   1.403       .  A
C898        C899   1.418       .  A
C899        C900   1.415       .  A
C899        C906   1.523       .  S
C900        C901   1.410       .  A
C900        H905   1.083       .  S
C901        C902   1.417       .  A
C902        C903   1.520       .  S
C903        F908   1.382       .  S
C903        F909   1.383       .  S
C906        F910   1.378       .  S
C906        F911   1.381       .  S
C906        F912   1.385       .  S
C913        C914   1.403       .  A
C913        C918   1.404       .  A
C913        H920   1.085       .  S
C914        C915   1.422       .  A
C915        C916   1.408       .  A
C916        C917   1.397       .  A
C916        H921   1.086       .  S
C917        C918   1.414       .  A
C918        C919   1.513       .  S
C919        F923   1.385       .  S
C919        F924   1.383       .  S
C919        F925   1.379       .  S
C922        F926   1.381       .  S
C922        F927   1.382       .  S
C922        F928   1.385       .  S
C929        C930   1.396       .  A
C929        C934   1.401       .  A
C929        H936   1.082       .  S
C930        C931   1.415       .  A
C931        C932   1.402       .  A
C931        C938   1.516       .  S
C932        C933   1.400       .  A
C932        H937   1.084       .  S
C933        C934   1.415       .  A
C934        C935   1.514       .  S
C935        F939   1.385       .  S
C935        F940   1.380       .  S
C935        F941   1.383       .  S
C938        F942   1.381       .  S
C945        H952   1.081       .  S
C946        C947   1.413       .  A
C947        C948   1.405       .  A
C947        C954   1.516       .  S
C948        C949   1.404       .  A
C948        H953   1.083       .  S
C949        C950   1.418       .  A
C951        F955   1.384       .  S
C951        F956   1.382       .  S
C954        F958   1.382       .  S
C954        F959   1.382       .  S
C954        F960   1.384       .  S
C961        C962   1.404       .  A
C961        C966   1.408       .  A
C961        H968   1.084       .  S
C962        C963   1.417       .  A
C963        C964   1.405       .  A
C963        C970   1.520       .  S
C964        C965   1.404       .  A
C964        H969   1.083       .  S
C965        C966   1.418       .  A
C966        C967   1.518       .  S
C967        F972   1.383       .  S
C970        F974   1.382       .  S
C970        F975   1.382       .  S
C970        F976   1.383   1_565  S
C977        C978   1.409       .  A
C977        C982   1.406       .  A
C978        C979   1.422       .  A
C979        C980   1.408       .  A
C979        C986   1.518       .  S
C980        C981   1.402       .  A
C980        H985   1.084       .  S
C981        C982   1.416       .  A
C982        C983   1.519       .  S
C983        F988   1.381       .  S
C983        F989   1.381       .  S
C986        F990   1.383       .  S
C986        F991   1.380       .  S
C986        F992   1.385       .  S
C993        C994   1.407       .  A
C993        C998   1.396       .  A
C993       H1000   1.084       .  S
C994        C995   1.432       .  A
C995        C996   1.411       .  A
C995       C1002   1.518       .  S
C996        C997   1.400       .  A
C996       H1001   1.083       .  S
C997        C998   1.414       .  A
C998        C999   1.514       .  S
C999       F1003   1.385       .  S
C999       F2076   1.380       .  S
C999       F2077   1.380       .  S
C1002      F1006   1.381       .  S
C1002      F1007   1.383       .  S
C1002      F1008   1.385       .  S
F1004      C2071   1.380   1_455  S
F1005      C2071   1.380   1_455  S
C1009      C1010   1.411       .  A
C1009      C1014   1.405       .  A
C1009      H1016   1.075       .  S
C1010      C1011   1.423       .  A
C1011      C1012   1.406       .  A
C1011      C1018   1.518       .  S
C1012      C1013   1.404       .  A
C1012      H1017   1.083       .  S
C1013      C1014   1.409       .  A
C1014      C1015   1.519       .  S
C1015      F1019   1.384       .  S
C1015      F1020   1.380       .  S
C1015      F1021   1.378       .  S
C1018      F1022   1.383       .  S
C1018      F1023   1.379       .  S
C1018      F1024   1.386       .  S
C1025      C1026   1.407       .  A
C1025      C1030   1.405       .  A
C1025      H1032   1.082       .  S
C1027      C1028   1.407       .  A
C1028      H1033   1.083   1_554  S
C1029      C1030   1.414       .  A
C1030      C1031   1.520       .  S
C1031      F1035   1.385       .  S
C1031      F1036   1.383       .  S
C1031      F1037   1.383       .  S
C1034      F1038   1.377       .  S
C1034      F1039   1.383       .  S
C1034      F1040   1.385       .  S
C1041      C1042   1.404       .  A
C1042      C1043   1.417       .  A
C1043      C1044   1.399       .  A
C1043      C1050   1.520       .  S
C1044      C1045   1.396       .  A
C1044      H1049   1.084       .  S
C1046      C1047   1.515       .  S
C1047      F1051   1.384       .  S
C1047      F1052   1.384       .  S
C1047      F1053   1.383       .  S
C1050      F1054   1.380       .  S
C1050      F1055   1.383       .  S
C1050      F1056   1.382       .  S
C1057      C1058   1.404       .  A
C1057      C1062   1.408       .  A
C1057      H1064   1.076       .  S
C1058      C1059   1.417       .  A
C1059      C1060   1.411       .  A
C1059      C1066   1.518       .  S
C1060      C1061   1.409       .  A
C1060      H1065   1.083       .  S
C1061      C1062   1.418       .  A
C1062      C1063   1.521       .  S
C1063      F1068   1.382       .  S
C1066      F1070   1.382       .  S
C1066      F1071   1.381       .  S
C1066      F1072   1.385       .  S
C1073      N1074   1.358       .  A
C1073      N1078   1.363       .  A
C1073      C1329   1.484       .  S
N1074      C1075   1.356       .  A
C1075      N1076   1.353       .  A
C1075      C1313   1.460       .  S
N1076      C1077   1.352       .  A
C1077      N1078   1.360       .  A
C1077      C1297   1.472       .  S
C1079      N1080   1.364       .  A
C1079      N1084   1.362       .  A
C1079      C1278   1.501       .  S
N1080      C1081   1.362       .  A
C1081      N1082   1.355       .  A
C1081      C1249   1.484       .  S
N1082      C1083   1.361       .  A
C1083      N1084   1.357       .  A
C1083      C1262   1.502       .  S
C1085      N1086   1.360       .  A
C1085      N1090   1.359       .  A
C1085      C1217   1.481       .  S
N1086      C1087   1.359       .  A
C1087      N1088   1.355       .  A
C1087      C1230   1.482       .  S
N1088      C1089   1.354       .  A
C1089      N1090   1.357       .  A
C1089      C1201   1.468       .  S
C1091      N1092   1.363       .  A
C1091      N1096   1.360       .  A
C1091      C1169   1.492       .  S
N1092      C1093   1.361       .  A
C1093      N1094   1.353       .  A
C1093      C1185   1.475       .  S
N1094      C1095   1.354       .  A
C1095      N1096   1.359       .  A
C1095      C1153   1.471       .  S
C1097      C1326   1.488       .  S
C1097      O1112   1.259       .  A
C1097      O1099   1.258       .  A
Tb1098     O1656   2.352       .  S
Tb1098     O1657   2.327   1_545  S
Tb1098     O1640   2.351   1_545  S
Tb1098     O1102   2.363       .  S
Tb1098     O1119   2.358   1_545  S
O1099     Tb1103   2.370       .  S
O1100      C1111   1.260       .  A
O1100     Tb1639   2.351       .  S
C1101      C1198   1.463       .  S
C1101      O1106   1.265       .  A
C1101      O1122   1.260       .  A
O1102      C1118   1.267       .  A
Tb1103     O1636   2.361   1_545  S
Tb1103     O1375   2.361       .  S
Tb1103     O1112   2.349       .  S
Tb1103     O1106   2.337       .  S
Tb1103     O1649   2.354   1_545  S
Tb1103     O1115   2.351       .  S
Tb1103     O1641   2.338   1_545  S
O1104      C1646   1.263       .  A
O1104     Tb1634   2.345       .  S
O1105     Tb1639   2.342       .  S
O1107      C1117   1.280       .  A
O1107     Tb1371   2.377       .  S
C1108      C1310   1.466       .  S
C1108      O1121   1.263       .  A
O1109      C1116   1.281       .  A
C1110      C1750   1.481       .  S
C1110      O1640   1.265       .  A
C1110      O1119   1.263       .  A
C1111      C1233   1.485       .  S
C1111      O1113   1.260       .  A
O1113     Tb1639   2.364       .  S
O1114      C1385   1.279       .  A
O1115      C1116   1.273       .  A
C1116      C1143   1.489       .  S
C1117      C1142   1.490       .  S
C1117      O1382   1.277   1_545  A
C1118      C1294   1.495       .  S
C1118      O1656   1.261       .  A
O1120      C1654   1.259       .  A
O1120     Tb1634   2.339       .  S
O1121     Tb1634   2.325       .  S
C1123      C1281   1.479       .  S
C1123      O1138   1.263       .  A
C1123      O1125   1.264       .  A
Tb1124     O1682   2.365       .  S
Tb1124     O1683   2.355   1_545  S
Tb1124     O1666   2.337   1_545  S
Tb1124     O1128   2.382       .  S
Tb1124     O1145   2.370   1_545  S
O1125     Tb1129   2.365       .  S
O1126      C1137   1.261       .  A
O1126     Tb1665   2.344       .  S
C1127      C1150   1.483       .  S
C1127      O1132   1.257       .  A
C1127      O1148   1.267       .  A
O1128      C1144   1.261       .  A
Tb1129     O1662   2.360   1_545  S
Tb1129     O1133   2.376       .  S
Tb1129     O1138   2.340       .  S
Tb1129     O1132   2.318       .  S
Tb1129     O1675   2.352   1_545  S
Tb1129     O1141   2.352       .  S
Tb1129     O1667   2.342   1_545  S
O1130      C1672   1.258       .  A
O1130     Tb1660   2.345       .  S
O1131     Tb1665   2.341       .  S
O1133      C1143   1.282       .  A
C1134      C1265   1.485       .  S
C1134      O1147   1.269       .  A
O1135      C1142   1.277       .  A
C1136      C1702   1.480       .  S
C1136      O1666   1.258       .  A
C1136      O1145   1.261       .  A
C1137      C1182   1.487       .  S
C1137      O1139   1.264       .  A
O1139     Tb1665   2.348       .  S
O1140      C1143   1.277       .  A
O1141      C1142   1.273       .  A
C1144      C1246   1.501       .  S
C1144      O1682   1.261       .  A
O1146      C1680   1.260       .  A
O1146     Tb1660   2.356       .  S
O1147     Tb1660   2.349       .  S
C1149      C1150   1.405       .  A
C1149      C1154   1.404       .  A
C1149      H1156   1.082       .  S
C1150      C1151   1.427       .  A
C1151      C1152   1.405       .  A
C1151      C1158   1.528       .  S
C1152      C1153   1.399       .  A
C1152      H1157   1.084       .  S
C1153      C1154   1.413       .  A
C1154      C1155   1.519       .  S
C1155      F1159   1.385       .  S
C1155      F1160   1.382       .  S
C1155      F1161   1.382       .  S
C1158      F1162   1.383       .  S
C1158      F1163   1.381       .  S
C1158      F1164   1.383       .  S
C1165      C1166   1.403       .  A
C1165      C1170   1.404       .  A
C1165      H1708   1.083       .  S
C1166      C1672   1.485       .  S
C1166      C1167   1.416       .  A
C1167      C1168   1.413       .  A
C1167      C1174   1.519       .  S
C1168      C1169   1.409       .  A
C1168      H1173   1.083       .  S
C1169      C1170   1.421       .  A
C1170      C1171   1.517       .  S
C1171      F1711   1.384       .  S
C1171      F1176   1.381       .  S
C1171      F1177   1.380       .  S
H1172      C1701   1.084       .  S
C1174      F1178   1.380       .  S
C1174      F1179   1.383       .  S
C1174      F1180   1.384       .  S
F1175      C1707   1.383       .  S
C1181      C1182   1.401       .  A
C1181      C1186   1.401       .  A
C1181      H1188   1.079       .  S
C1182      C1183   1.422       .  A
C1183      C1184   1.411       .  A
C1183      C1726   1.512       .  S
C1184      C1185   1.399       .  A
C1184      H1189   1.082       .  S
C1185      C1186   1.413       .  A
C1186      C1187   1.510       .  S
C1187      F1191   1.385       .  S
C1187      F1192   1.382       .  S
C1187      F1193   1.374       .  S
C1190      C1719   1.517       .  S
C1190      F1194   1.382       .  S
C1190      F1195   1.382   1_565  S
C1190      F1196   1.385   1_565  S
C1197      C1198   1.395       .  A
C1197      C1202   1.400       .  A
C1197      H1204   1.083       .  S
C1198      C1199   1.416       .  A
C1199      C1200   1.404       .  A
C1199      C1206   1.516       .  S
C1200      C1201   1.400       .  A
C1200      H1205   1.083       .  S
C1201      C1202   1.414       .  A
C1202      C1203   1.512       .  S
C1203      F1207   1.384       .  S
C1203      F1208   1.381       .  S
C1203      F1209   1.383       .  S
C1206      F1210   1.382   1_554  S
C1206      F1479   1.380       .  S
C1206      F1480   1.384   1_554  S
F1211      C1474   1.374       .  S
F1212      C1474   1.384       .  S
C1213      C1750   1.404       .  A
C1213      C1754   1.405       .  A
C1213      H1220   1.083       .  S
C1214      C1646   1.480       .  S
C1214      C1749   1.401       .  A
C1214      C1215   1.415       .  A
C1215      C1216   1.411       .  A
C1215      C1222   1.515       .  S
C1216      C1217   1.407       .  A
C1216      H1221   1.084       .  S
C1217      C1218   1.417       .  A
C1218      C1749   1.403       .  A
C1218      C1755   1.520       .  S
C1219      C1754   1.519       .  S
C1219      F1223   1.384   1_554  S
C1219      F1224   1.381       .  S
C1219      F1761   1.383       .  S
C1222      F1226   1.381       .  S
C1222      F1227   1.383       .  S
C1222      F1228   1.385       .  S
F1225      C1755   1.383   1_556  S
C1229      C1230   1.406       .  A
C1229      C1234   1.409       .  A
C1229      H1236   1.083       .  S
C1230      C1231   1.416       .  A
C1231      C1232   1.406       .  A
C1231      C1238   1.518       .  S
C1232      C1233   1.405       .  A
C1232      H1237   1.083       .  S
C1233      C1234   1.418       .  A
C1234      C1235   1.519       .  S
C1235      F1507   1.385       .  S
C1235      F1240   1.382   1_554  S
C1235      F1509   1.383       .  S
C1238      F1242   1.382       .  S
C1238      F1243   1.381       .  S
C1238      F1244   1.384       .  S
F1239      C1503   1.385       .  S
F1241      C1503   1.382       .  S
C1245      C1246   1.408       .  A
C1245      C1250   1.407       .  A
C1245      H1788   1.085       .  S
C1246      C1247   1.425       .  A
C1247      C1248   1.415       .  A
C1247      C1254   1.517       .  S
C1248      C1249   1.404       .  A
C1248      H1253   1.083       .  S
C1249      C1250   1.417       .  A
C1250      C1251   1.519       .  S
C1251      F1791   1.383       .  S
C1251      F1256   1.381       .  S
C1251      F1257   1.380       .  S
H1252      C1781   1.084       .  S
C1254      F1258   1.381   1_655  S
C1254      F1259   1.380       .  S
C1254      F1260   1.385       .  S
F1255      C1787   1.384       .  S
C1261      C1262   1.406       .  A
C1261      C1266   1.397       .  A
C1261      H1268   1.083       .  S
C1262      C1263   1.431       .  A
C1263      C1264   1.413       .  A
C1263      C1270   1.517       .  S
C1264      C1265   1.402       .  A
C1264      H1269   1.083       .  S
C1265      C1266   1.414       .  A
C1266      C1267   1.512       .  S
C1267      F1271   1.384       .  S
C1270      F1274   1.380       .  S
C1270      F1275   1.384       .  S
C1270      F1276   1.386       .  S
C1277      C1278   1.412       .  A
C1277      C1282   1.410       .  A
C1277      H1284   1.081       .  S
C1278      C1279   1.423       .  A
C1279      C1280   1.405       .  A
C1279      C1286   1.518       .  S
C1280      C1281   1.401       .  A
C1280      H1285   1.084       .  S
C1281      C1282   1.414       .  A
C1282      C1283   1.519       .  S
C1283      F1287   1.385       .  S
C1283      F1288   1.381       .  S
C1283      F1289   1.377       .  S
C1286      F1290   1.383       .  S
C1286      F1291   1.378       .  S
C1286      F1292   1.385       .  S
C1293      C1294   1.408       .  A
C1293      C1298   1.408       .  A
C1293      H1300   1.082       .  S
C1294      C1563   1.427       .  A
C1295      C1562   1.427       .  A
C1295      C1296   1.407       .  A
C1295      C1838   1.520       .  S
C1296      C1565   1.397       .  A
C1296      H1301   1.084       .  S
C1297      C1564   1.397       .  A
C1297      C1298   1.413       .  A
C1298      C1299   1.519       .  S
C1299      F1303   1.384       .  S
C1299      F1304   1.383       .  S
C1299      F1305   1.382       .  S
C1302      C1831   1.520       .  S
C1302      F1306   1.377       .  S
C1302      F1307   1.381       .  S
C1302      F1308   1.385       .  S
C1309      C1310   1.404   1_556  A
C1309      C1582   1.408       .  A
C1309      H1584   1.083       .  S
C1310      C1311   1.415       .  A
C1311      C1312   1.398       .  A
C1311      C1318   1.517       .  S
C1312      C1313   1.395       .  A
C1312      H1317   1.084       .  S
C1313      C1582   1.411   1_554  A
C1314      C1577   1.406       .  A
C1314      C1581   1.409       .  A
C1314      C1315   1.515       .  S
C1315      F1319   1.384       .  S
C1315      F1320   1.383       .  S
C1315      F1321   1.383       .  S
H1316      C1577   1.083       .  S
C1318      F1322   1.381       .  S
C1318      F1323   1.382   1_655  S
C1318      F1324   1.381       .  S
C1325      C1326   1.405       .  A
C1325      C1330   1.402       .  A
C1325      H1332   1.078       .  S
C1326      C1327   1.419       .  A
C1327      C1328   1.412       .  A
C1327      C1334   1.519       .  S
C1328      C1329   1.408       .  A
C1328      H1333   1.083       .  S
C1329      C1330   1.414       .  A
C1330      C1331   1.520   1_554  S
C1331      F1871   1.385       .  S
C1331      F1336   1.382   1_556  S
C1331      F1605   1.384       .  S
C1334      F1338   1.383       .  S
C1334      F1339   1.382       .  S
C1334      F1340   1.385       .  S
F1335      C1867   1.383       .  S
F1337      C1599   1.382       .  S
C1341      N1342   1.354       .  A
C1341      N1346   1.362       .  A
C1341      C1597   1.478       .  S
N1342      C1343   1.351       .  A
C1343      N1344   1.352       .  A
C1343      C1581   1.455       .  S
N1344      C1345   1.353       .  A
C1345      N1346   1.361       .  A
C1345      C1565   1.468       .  S
C1347      N1348   1.362       .  A
C1347      N1352   1.361       .  A
C1347      C1546   1.491       .  S
N1348      C1349   1.359       .  A
C1349      N1350   1.351       .  A
C1349      C1517   1.472       .  S
N1350      C1351   1.357       .  A
C1351      N1352   1.355       .  A
C1351      C1530   1.496       .  S
C1353      N1354   1.361       .  A
C1353      N1358   1.354       .  A
C1353      C1485   1.476       .  S
N1354      C1355   1.362       .  A
C1355      N1356   1.356       .  A
C1355      C1498   1.485       .  S
N1356      C1357   1.353       .  A
C1357      N1358   1.352       .  A
C1357      C1469   1.460       .  S
C1359      N1360   1.363       .  A
C1359      N1364   1.355       .  A
C1359      C1437   1.488       .  S
N1360      C1361   1.362       .  A
C1361      N1362   1.357       .  A
C1361      C1453   1.478       .  S
N1362      C1363   1.355       .  A
C1363      N1364   1.355       .  A
C1363      C1421   1.469       .  S
C1365      C1594   1.481       .  S
C1365      O1380   1.260       .  A
C1365      O1367   1.257       .  A
Tb1366     O1924   2.340       .  S
Tb1366     O1925   2.316   1_545  S
Tb1366     O1908   2.351   1_545  S
Tb1366     O1370   2.355       .  S
Tb1366     O1387   2.355   1_545  S
O1367     Tb1371   2.355       .  S
O1368      C1379   1.261       .  A
O1368     Tb1907   2.359       .  S
C1369      C1466   1.459       .  S
C1369      O1374   1.262       .  A
C1369      O1390   1.257       .  A
O1370      C1386   1.267       .  A
Tb1371     O1904   2.358   1_545  S
Tb1371     O1380   2.369       .  S
Tb1371     O1374   2.334       .  S
Tb1371     O1917   2.346   1_545  S
Tb1371     O1383   2.360       .  S
Tb1371     O1909   2.336   1_545  S
O1372      C1914   1.265       .  A
O1372     Tb1902   2.362       .  S
O1373     Tb1907   2.336       .  S
O1375      C1385   1.277   1_554  A
C1376      C1578   1.464       .  S
C1376      O1389   1.263       .  A
O1377      C1384   1.280       .  A
C1378      C2018   1.478       .  S
C1378      O1908   1.265       .  A
C1378      O1387   1.262       .  A
C1379      C1501   1.476       .  S
C1379      O1381   1.257       .  A
O1381     Tb1907   2.352       .  S
O1383      C1384   1.275       .  A
C1384      C1411   1.488       .  S
C1385      C1410   1.482       .  S
C1386      C1562   1.488       .  S
C1386      O1924   1.259       .  A
O1388      C1922   1.260       .  A
O1388     Tb1902   2.343       .  S
O1389     Tb1902   2.325       .  S
C1391      C1549   1.477       .  S
C1391      O1406   1.261       .  A
C1391      O1393   1.265       .  A
Tb1392     O1950   2.349       .  S
Tb1392     O1951   2.348   1_545  S
Tb1392     O1934   2.348   1_545  S
Tb1392     O1396   2.370       .  S
Tb1392     O1413   2.374   1_545  S
O1393     Tb1397   2.376       .  S
O1394      C1405   1.261       .  A
O1394     Tb1933   2.350       .  S
C1395      C1418   1.489       .  S
C1395      O1400   1.260       .  A
C1395      O1416   1.269       .  A
O1396      C1412   1.260       .  A
Tb1397     O1930   2.345   1_545  S
Tb1397     O1401   2.369       .  S
Tb1397     O1406   2.331       .  S
Tb1397     O1400   2.324       .  S
Tb1397     O1943   2.353   1_545  S
Tb1397     O1409   2.355       .  S
Tb1397     O1935   2.336   1_545  S
O1398      C1940   1.257       .  A
O1398     Tb1928   2.337       .  S
O1399     Tb1933   2.347       .  S
O1401      C1411   1.280       .  A
C1402      C1533   1.488       .  S
C1402      O1415   1.269       .  A
O1403      C1410   1.272       .  A
C1404      C1970   1.486       .  S
C1404      O1934   1.258       .  A
C1404      O1413   1.260       .  A
C1405      C1450   1.487       .  S
C1405      O1407   1.265       .  A
O1407     Tb1933   2.350       .  S
O1408      C1411   1.276       .  A
O1409      C1410   1.275       .  A
C1412      C1514   1.486       .  S
C1412      O1950   1.260       .  A
O1414      C1948   1.260       .  A
O1414     Tb1928   2.366       .  S
O1415     Tb1928   2.350       .  S
C1417      C1418   1.410       .  A
C1417      C1422   1.407       .  A
C1417      H1424   1.082       .  S
C1418      C1419   1.428       .  A
C1419      C1420   1.402       .  A
C1419      C1426   1.525       .  S
C1420      C1421   1.397       .  A
C1420      H1425   1.083       .  S
C1421      C1422   1.410       .  A
C1422      C1423   1.518       .  S
C1423      F1427   1.384       .  S
C1423      F1428   1.382       .  S
C1423      F1429   1.383       .  S
C1426      F1430   1.382       .  S
C1426      F1431   1.381       .  S
C1426      F1432   1.385       .  S
C1433      C1434   1.402       .  A
C1433      C1438   1.402       .  A
C1433      H1976   1.083       .  S
C1434      C1940   1.479       .  S
C1434      C1435   1.415       .  A
C1435      C1436   1.412       .  A
C1435      C1442   1.519       .  S
C1436      C1437   1.411       .  A
C1436      H1441   1.083       .  S
C1437      C1438   1.418       .  A
C1438      C1439   1.517       .  S
C1439      F1979   1.382       .  S
C1439      F1444   1.382       .  S
C1439      F1445   1.380       .  S
H1440      C1969   1.082       .  S
C1442      F1446   1.381       .  S
C1442      F1447   1.383       .  S
C1442      F1448   1.384       .  S
F1443      C1975   1.383       .  S
C1449      C1450   1.401       .  A
C1449      C1454   1.402       .  A
C1449      H1456   1.077       .  S
C1450      C1451   1.424       .  A
C1451      C1452   1.411       .  A
C1451      C1994   1.516       .  S
C1452      C1453   1.400       .  A
C1452      H1457   1.078       .  S
C1453      C1454   1.416       .  A
C1454      C1455   1.514       .  S
C1455      F1459   1.385       .  S
C1455      F1460   1.382       .  S
C1455      F1461   1.378       .  S
C1458      C1987   1.515       .  S
C1458      F1462   1.384       .  S
C1458      F1463   1.379   1_565  S
C1458      F1464   1.385       .  S
C1465      C1466   1.398       .  A
C1465      C1470   1.400       .  A
C1465      H1472   1.083       .  S
C1466      C1467   1.416       .  A
C1467      C1468   1.399       .  A
C1467      C1474   1.516       .  S
C1468      C1469   1.398       .  A
C1468      H1473   1.083       .  S
C1469      C1470   1.412       .  A
C1470      C1471   1.511       .  S
C1471      F1475   1.384       .  S
C1471      F1476   1.380       .  S
C1471      F1477   1.383       .  S
C1474      F1478   1.382       .  S
C1481      C2018   1.402       .  A
C1481      C2022   1.405       .  A
C1481      H1488   1.081       .  S
C1482      C1914   1.487       .  S
C1482      C2017   1.406       .  A
C1482      C1483   1.418       .  A
C1483      C1484   1.408       .  A
C1483      C1490   1.516       .  S
C1484      C1485   1.403       .  A
C1484      H1489   1.084       .  S
C1485      C1486   1.414       .  A
C1486      C2017   1.408       .  A
C1486      C2023   1.520       .  S
C1487      C2022   1.520       .  S
C1487      F1491   1.384       .  S
C1487      F1492   1.382       .  S
C1487      F2029   1.383       .  S
C1490      F1494   1.381       .  S
C1490      F1495   1.383       .  S
C1490      F1496   1.385       .  S
F1493      C2023   1.382       .  S
C1497      C1498   1.409       .  A
C1497      C1502   1.407       .  A
C1497      H1504   1.084       .  S
C1498      C1499   1.419       .  A
C1499      C1500   1.406       .  A
C1499      C1506   1.519       .  S
C1500      C1501   1.402       .  A
C1500      H1505   1.084       .  S
C1501      C1502   1.415       .  A
C1502      C1503   1.520       .  S
C1503      F1508   1.380       .  S
C1506      F1510   1.382       .  S
C1506      F1511   1.384       .  S
C1506      F1512   1.384       .  S
C1513      C1514   1.407       .  A
C1513      C1518   1.403       .  A
C1513      H2056   1.085       .  S
C1514      C1515   1.421       .  A
C1515      C1516   1.407       .  A
C1515      C1522   1.518       .  S
C1516      C1517   1.402       .  A
C1516      H1521   1.084       .  S
C1517      C1518   1.415       .  A
C1518      C1519   1.518       .  S
C1519      F2059   1.385       .  S
C1519      F1524   1.380       .  S
C1519      F1525   1.380       .  S
H1520      C2049   1.085       .  S
C1522      F1526   1.381   1_655  S
C1522      F1527   1.379       .  S
C1522      F1528   1.386       .  S
F1523      C2055   1.384       .  S
C1529      C1530   1.403       .  A
C1529      C1534   1.394       .  A
C1529      H1536   1.083       .  S
C1530      C1531   1.427       .  A
C1531      C1532   1.415       .  A
C1531      C1538   1.518       .  S
C1532      C1533   1.405       .  A
C1532      H1537   1.083       .  S
C1533      C1534   1.415       .  A
C1534      C1535   1.508       .  S
C1535      F1539   1.385       .  S
C1538      F1542   1.382       .  S
C1538      F1543   1.384       .  S
C1538      F1544   1.385       .  S
C1545      C1546   1.411       .  A
C1545      C1550   1.408       .  A
C1545      H1552   1.081       .  S
C1546      C1547   1.421       .  A
C1547      C1548   1.403       .  A
C1547      C1554   1.519       .  S
C1548      C1549   1.403       .  A
C1548      H1553   1.083       .  S
C1549      C1550   1.411       .  A
C1550      C1551   1.516       .  S
C1551      F1555   1.382       .  S
C1551      F1556   1.381       .  S
C1551      F1557   1.385       .  S
C1554      F1558   1.383       .  S
C1554      F1559   1.379       .  S
C1554      F1560   1.385       .  S
C1561      C1562   1.407       .  A
C1561      C1566   1.404       .  A
C1561      H1568   1.082       .  S
C1563      C1564   1.408       .  A
C1563      C2106   1.517   1_554  S
C1564      H1569   1.084   1_554  S
C1565      C1566   1.412       .  A
C1566      C1567   1.518       .  S
C1567      F1571   1.385       .  S
C1567      F1572   1.380       .  S
C1567      F1573   1.382       .  S
C1570      C2099   1.519       .  S
C1570      F1574   1.378       .  S
C1570      F1575   1.382       .  S
C1570      F1576   1.385       .  S
C1577      C1578   1.404       .  A
C1578      C1579   1.417       .  A
C1579      C1580   1.397       .  A
C1579      C1586   1.517       .  S
C1580      C1581   1.394       .  A
C1580      H1585   1.084       .  S
C1582      C1583   1.516       .  S
C1583      F1587   1.384       .  S
C1583      F1588   1.382       .  S
C1583      F1589   1.383       .  S
C1586      F1590   1.381       .  S
C1586      F1591   1.380   1_655  S
C1586      F1592   1.382       .  S
C1593      C1594   1.405       .  A
C1593      C1598   1.406       .  A
C1593      H1600   1.083       .  S
C1594      C1595   1.414       .  A
C1595      C1596   1.404       .  A
C1595      C1602   1.512       .  S
C1596      C1597   1.403       .  A
C1596      H1601   1.084       .  S
C1597      C1598   1.416       .  A
C1598      C1599   1.517       .  S
C1599      F2139   1.384       .  S
C1599      F1604   1.384       .  S
C1602      F1606   1.383       .  S
C1602      F1607   1.380       .  S
C1602      F1608   1.384       .  S
F1603      C2135   1.385       .  S
C1609      N1610   1.357       .  A
C1609      N1614   1.362       .  A
C1609      C1865   1.484       .  S
N1610      C1611   1.353       .  A
C1611      N1612   1.350       .  A
C1611      C1849   1.460       .  S
N1612      C1613   1.353       .  A
C1613      N1614   1.363       .  A
C1613      C1833   1.468       .  S
C1615      N1616   1.361       .  A
C1615      N1620   1.361       .  A
C1615      C1814   1.489       .  S
N1616      C1617   1.358       .  A
C1617      N1618   1.352       .  A
C1617      C1785   1.472       .  S
N1618      C1619   1.359       .  A
C1619      N1620   1.357       .  A
C1619      C1798   1.500       .  S
C1621      N1622   1.359       .  A
C1621      N1626   1.356       .  A
C1621      C1753   1.475       .  S
N1622      C1623   1.360       .  A
C1623      N1624   1.361       .  A
C1623      C1766   1.492       .  S
N1624      C1625   1.357       .  A
C1625      N1626   1.354       .  A
C1625      C1737   1.472       .  S
C1627      N1628   1.363       .  A
C1627      N1632   1.357       .  A
C1627      C1705   1.489       .  S
N1628      C1629   1.362       .  A
C1629      N1630   1.355       .  A
C1629      C1721   1.480       .  S
N1630      C1631   1.355       .  A
C1631      N1632   1.357       .  A
C1631      C1689   1.473       .  S
C1633      C1862   1.489       .  S
C1633      O1648   1.260       .  A
C1633      O1635   1.257       .  A
Tb1634     O1638   2.351       .  S
Tb1634     O1655   2.364       .  S
O1635     Tb1639   2.365       .  S
O1636      C1647   1.261       .  A
C1637      C1734   1.469       .  S
C1637      O1642   1.267       .  A
C1637      O1658   1.263       .  A
O1638      C1654   1.267       .  A
Tb1639     O1911   2.378   1_554  S
Tb1639     O1648   2.377       .  S
Tb1639     O1642   2.346       .  S
Tb1639     O1651   2.373       .  S
O1643      C1653   1.277       .  A
O1643     Tb1907   2.365       .  S
C1644      C1846   1.470       .  S
C1644      O1657   1.262       .  A
O1645      C1652   1.277       .  A
C1646      O1655   1.263       .  A
C1647      C1769   1.482       .  S
C1647      O1649   1.258       .  A
O1650      C1921   1.276       .  A
O1651      C1652   1.277       .  A
C1652      C1679   1.488       .  S
C1653      C1678   1.482       .  S
C1653      O1918   1.276       .  A
C1654      C1830   1.488       .  S
C1659      C1817   1.476       .  S
C1659      O1674   1.261       .  A
C1659      O1661   1.264       .  A
Tb1660     O1664   2.369       .  S
Tb1660     O1681   2.371       .  S
O1661     Tb1665   2.373       .  S
O1662      C1673   1.261       .  A
C1663      C1686   1.489       .  S
C1663      O1668   1.259       .  A
C1663      O1684   1.267       .  A
O1664      C1680   1.260       .  A
Tb1665     O1669   2.365       .  S
Tb1665     O1674   2.326       .  S
Tb1665     O1668   2.321       .  S
Tb1665     O1677   2.347       .  S
O1669      C1679   1.278       .  A
C1670      C1801   1.487       .  S
C1670      O1683   1.272       .  A
O1671      C1678   1.274       .  A
C1672      O1681   1.260       .  A
C1673      C1718   1.493       .  S
C1673      O1675   1.265       .  A
O1676      C1679   1.278       .  A
O1677      C1678   1.272       .  A
C1680      C1782   1.494       .  S
C1685      C1686   1.409       .  A
C1685      C1690   1.407       .  A
C1685      H1692   1.082       .  S
C1686      C1687   1.427       .  A
C1687      C1688   1.403       .  A
C1687      C1694   1.526       .  S
C1688      C1689   1.399       .  A
C1688      H1693   1.083       .  S
C1689      C1690   1.413       .  A
C1690      C1691   1.519       .  S
C1691      F1695   1.385       .  S
C1691      F1696   1.382       .  S
C1691      F1697   1.383       .  S
C1694      F1698   1.383       .  S
C1694      F1699   1.381       .  S
C1694      F1700   1.384       .  S
C1701      C1702   1.402       .  A
C1701      C1706   1.403       .  A
C1702      C1703   1.415       .  A
C1703      C1704   1.412       .  A
C1703      C1710   1.519       .  S
C1704      C1705   1.411       .  A
C1704      H1709   1.084       .  S
C1705      C1706   1.419       .  A
C1706      C1707   1.519       .  S
C1707      F1712   1.381       .  S
C1707      F1713   1.382       .  S
C1710      F1714   1.381       .  S
C1710      F1715   1.383       .  S
C1710      F1716   1.385       .  S
C1717      C1718   1.403       .  A
C1717      C1722   1.403       .  A
C1717      H1724   1.079       .  S
C1718      C1719   1.426       .  A
C1719      C1720   1.414       .  A
C1720      C1721   1.401       .  A
C1720      H1725   1.082       .  S
C1721      C1722   1.415       .  A
C1722      C1723   1.516       .  S
C1723      F1727   1.385       .  S
C1723      F1728   1.382       .  S
C1723      F1729   1.381       .  S
C1726      F1730   1.383       .  S
C1726      F1731   1.381       .  S
C1726      F1732   1.385       .  S
C1733      C1734   1.399       .  A
C1733      C1738   1.405       .  A
C1733      H1740   1.082       .  S
C1734      C1735   1.414       .  A
C1735      C1736   1.403       .  A
C1735      C1742   1.516       .  S
C1736      C1737   1.401       .  A
C1736      H1741   1.083       .  S
C1737      C1738   1.414       .  A
C1738      C1739   1.512       .  S
C1739      F1743   1.384       .  S
C1739      F1744   1.379       .  S
C1739      F1745   1.383       .  S
C1742      F1746   1.381   1_554  S
C1742      F2015   1.376       .  S
C1742      F2016   1.385   1_554  S
F1747      C2010   1.380       .  S
F1748      C2010   1.384       .  S
C1749      H1756   1.082       .  S
C1750      C1751   1.419       .  A
C1751      C1752   1.408       .  A
C1751      C1758   1.516       .  S
C1752      C1753   1.403       .  A
C1752      H1757   1.083       .  S
C1753      C1754   1.416       .  A
C1755      F1759   1.385   1_554  S
C1755      F1760   1.382       .  S
C1758      F1762   1.380       .  S
C1758      F1763   1.380       .  S
C1758      F1764   1.386       .  S
C1765      C1766   1.409       .  A
C1765      C1770   1.406       .  A
C1765      H1772   1.082       .  S
C1766      C1767   1.423       .  A
C1767      C1768   1.409       .  A
C1767      C1774   1.521       .  S
C1768      C1769   1.404       .  A
C1768      H1773   1.083   1_565  S
C1769      C1770   1.415       .  A
C1770      C1771   1.519       .  S
C1771      F2043   1.385       .  S
C1771      F1776   1.382       .  S
C1771      F2045   1.382       .  S
C1774      F1778   1.383       .  S
C1774      F1779   1.383       .  S
C1774      F1780   1.385   1_565  S
F1775      C2039   1.384       .  S
F1777      C2039   1.384       .  S
C1781      C1782   1.409       .  A
C1781      C1786   1.404       .  A
C1782      C1783   1.425       .  A
C1783      C1784   1.410       .  A
C1783      C1790   1.519       .  S
C1784      C1785   1.401       .  A
C1784      H1789   1.084       .  S
C1785      C1786   1.415       .  A
C1786      C1787   1.521       .  S
C1787      F1792   1.381       .  S
C1787      F1793   1.381       .  S
C1790      F1794   1.382   1_655  S
C1790      F1795   1.380       .  S
C1790      F1796   1.385       .  S
C1797      C1798   1.406       .  A
C1797      C1802   1.397       .  A
C1797      H1804   1.083       .  S
C1798      C1799   1.428       .  A
C1799      C1800   1.413       .  A
C1799      C1806   1.518       .  S
C1800      C1801   1.403       .  A
C1800      H1805   1.083       .  S
C1801      C1802   1.416       .  A
C1802      C1803   1.511       .  S
C1803      F1807   1.386       .  S
C1806      F1810   1.381       .  S
C1806      F1811   1.384       .  S
C1806      F1812   1.385       .  S
C1813      C1814   1.411       .  A
C1813      C1818   1.410       .  A
C1813      H1820   1.082       .  S
C1814      C1815   1.421       .  A
C1815      C1816   1.401       .  A
C1815      C1822   1.519       .  S
C1816      C1817   1.401       .  A
C1816      H1821   1.084       .  S
C1817      C1818   1.412       .  A
C1818      C1819   1.516       .  S
C1819      F1823   1.385       .  S
C1819      F1824   1.383       .  S
C1819      F1825   1.380       .  S
C1822      F1826   1.383       .  S
C1822      F1827   1.381       .  S
C1822      F1828   1.385       .  S
C1829      C1830   1.405       .  A
C1829      C1834   1.402       .  A
C1829      H1836   1.082       .  S
C1830      C2099   1.428   1_554  A
C1831      C2098   1.428       .  A
C1831      C1832   1.407       .  A
C1832      C2101   1.397       .  A
C1832      H1837   1.083       .  S
C1833      C2100   1.397   1_554  A
C1833      C1834   1.414       .  A
C1834      C1835   1.521       .  S
C1835      F1839   1.384       .  S
C1835      F1840   1.382       .  S
C1835      F1841   1.383       .  S
C1838      F1842   1.379       .  S
C1838      F1843   1.382       .  S
C1838      F1844   1.385       .  S
C1845      C1846   1.405       .  A
C1845      C2118   1.405   1_554  A
C1845      H2120   1.083   1_554  S
C1846      C1847   1.419       .  A
C1847      C1848   1.400       .  A
C1847      C1854   1.520       .  S
C1848      C1849   1.396       .  A
C1848      H1853   1.084       .  S
C1849      C2118   1.410   1_554  A
C1850      C2113   1.407       .  A
C1850      C2117   1.410       .  A
C1850      C1851   1.518       .  S
C1851      F1855   1.384       .  S
C1851      F1856   1.384       .  S
C1851      F1857   1.383       .  S
H1852      C2113   1.084       .  S
C1854      F1858   1.379       .  S
C1854      F1859   1.382       .  S
C1854      F1860   1.383       .  S
C1861      C1862   1.407       .  A
C1861      C1866   1.410       .  A
C1861      H1868   1.083       .  S
C1862      C1863   1.417       .  A
C1863      C1864   1.406       .  A
C1863      C1870   1.512   1_554  S
C1864      C1865   1.402       .  A
C1864      H1869   1.084   1_554  S
C1865      C1866   1.418       .  A
C1866      C1867   1.518       .  S
C1867      F1872   1.382       .  S
C1867      F2141   1.383       .  S
C1870      F1874   1.382   1_556  S
C1870      F1875   1.380       .  S
C1870      F1876   1.383       .  S
F1873      C2135   1.384       .  S
C1877      N1878   1.356       .  A
C1877      N1882   1.362       .  A
C1877      C2133   1.477       .  S
N1878      C1879   1.352       .  A
C1879      N1880   1.351       .  A
C1879      C2117   1.456       .  S
N1880      C1881   1.352       .  A
C1881      N1882   1.360       .  A
C1881      C2101   1.468       .  S
C1883      N1884   1.365       .  A
C1883      N1888   1.362       .  A
C1883      C2082   1.502       .  S
N1884      C1885   1.363       .  A
C1885      N1886   1.354       .  A
C1885      C2053   1.485       .  S
N1886      C1887   1.361       .  A
C1887      N1888   1.355       .  A
C1887      C2066   1.503       .  S
C1889      N1890   1.361       .  A
C1889      N1894   1.357       .  A
C1889      C2021   1.478       .  S
N1890      C1891   1.361       .  A
C1891      N1892   1.357       .  A
C1891      C2034   1.486       .  S
N1892      C1893   1.354       .  A
C1893      N1894   1.354       .  A
C1893      C2005   1.468       .  S
C1895      N1896   1.365       .  A
C1895      N1900   1.358       .  A
C1895      C1973   1.490       .  S
N1896      C1897   1.364       .  A
C1897      N1898   1.353       .  A
C1897      C1989   1.477       .  S
N1898      C1899   1.353       .  A
C1899      N1900   1.357       .  A
C1899      C1957   1.468       .  S
C1901      C2130   1.484       .  S
C1901      O1916   1.259       .  A
C1901      O1903   1.258       .  A
Tb1902     O1906   2.351       .  S
Tb1902     O1923   2.361       .  S
O1903     Tb1907   2.367       .  S
O1904      C1915   1.260       .  A
C1905      C2002   1.465       .  S
C1905      O1910   1.265       .  A
C1905      O1926   1.261       .  A
O1906      C1922   1.268       .  A
Tb1907     O1916   2.346       .  S
Tb1907     O1910   2.341       .  S
Tb1907     O1919   2.354       .  S
O1911      C1921   1.280       .  A
C1912      C2114   1.468       .  S
C1912      O1925   1.260       .  A
O1913      C1920   1.279       .  A
C1914      O1923   1.262       .  A
C1915      C2037   1.480       .  S
C1915      O1917   1.257       .  A
O1919      C1920   1.273       .  A
C1920      C1947   1.489       .  S
C1921      C1946   1.490       .  S
C1922      C2098   1.489       .  S
C1927      C2085   1.475       .  S
C1927      O1942   1.262       .  A
C1927      O1929   1.264       .  A
Tb1928     O1932   2.374       .  S
Tb1928     O1949   2.368       .  S
O1929     Tb1933   2.358       .  S
O1930      C1941   1.261       .  A
C1931      C1954   1.485       .  S
C1931      O1936   1.258       .  A
C1931      O1952   1.268       .  A
O1932      C1948   1.260       .  A
Tb1933     O1937   2.367       .  S
Tb1933     O1942   2.339       .  S
Tb1933     O1936   2.321       .  S
Tb1933     O1945   2.350       .  S
O1937      C1947   1.280       .  A
C1938      C2069   1.485       .  S
C1938      O1951   1.269       .  A
O1939      C1946   1.276       .  A
C1940      O1949   1.261       .  A
C1941      C1986   1.492       .  S
C1941      O1943   1.265       .  A
O1944      C1947   1.277       .  A
O1945      C1946   1.271       .  A
C1948      C2050   1.498       .  S
C1953      C1954   1.407       .  A
C1953      C1958   1.405       .  A
C1953      H1960   1.080       .  S
C1954      C1955   1.426       .  A
C1955      C1956   1.404       .  A
C1955      C1962   1.525       .  S
C1956      C1957   1.398       .  A
C1956      H1961   1.083       .  S
C1957      C1958   1.411       .  A
C1958      C1959   1.518       .  S
C1959      F1963   1.384       .  S
C1959      F1964   1.382       .  S
C1959      F1965   1.383       .  S
C1962      F1966   1.383       .  S
C1962      F1967   1.381       .  S
C1962      F1968   1.384       .  S
C1969      C1970   1.404       .  A
C1969      C1974   1.404       .  A
C1970      C1971   1.419       .  A
C1971      C1972   1.414       .  A
C1971      C1978   1.521       .  S
C1972      C1973   1.408       .  A
C1972      H1977   1.082       .  S
C1973      C1974   1.417       .  A
C1974      C1975   1.514       .  S
C1975      F1980   1.382       .  S
C1975      F1981   1.382       .  S
C1978      F1982   1.380       .  S
C1978      F1983   1.382       .  S
C1978      F1984   1.385       .  S
C1985      C1986   1.404       .  A
C1985      C1990   1.403       .  A
C1985      H1992   1.083       .  S
C1986      C1987   1.424       .  A
C1987      C1988   1.411       .  A
C1988      C1989   1.400       .  A
C1988      H1993   1.084       .  S
C1989      C1990   1.413       .  A
C1990      C1991   1.512       .  S
C1991      F1995   1.384       .  S
C1991      F1996   1.382       .  S
C1991      F1997   1.374       .  S
C1994      F1998   1.381       .  S
C1994      F1999   1.382       .  S
C1994      F2000   1.384       .  S
C2001      C2002   1.398       .  A
C2001      C2006   1.403       .  A
C2001      H2008   1.083       .  S
C2002      C2003   1.415       .  A
C2003      C2004   1.404       .  A
C2003      C2010   1.517       .  S
C2004      C2005   1.401       .  A
C2004      H2009   1.084       .  S
C2005      C2006   1.414       .  A
C2006      C2007   1.515       .  S
C2007      F2011   1.384       .  S
C2007      F2012   1.382       .  S
C2007      F2013   1.383       .  S
C2010      F2014   1.382       .  S
C2017      H2024   1.078       .  S
C2018      C2019   1.415       .  A
C2019      C2020   1.409       .  A
C2019      C2026   1.517       .  S
C2020      C2021   1.406       .  A
C2020      H2025   1.084       .  S
C2021      C2022   1.416       .  A
C2023      F2027   1.383       .  S
C2023      F2028   1.383       .  S
C2026      F2030   1.382       .  S
C2026      F2031   1.383       .  S
C2026      F2032   1.385       .  S
C2033      C2034   1.407       .  A
C2033      C2038   1.406       .  A
C2033      H2040   1.083       .  S
C2034      C2035   1.418       .  A
C2035      C2036   1.408       .  A
C2035      C2042   1.518       .  S
C2036      C2037   1.404       .  A
C2036      H2041   1.083   1_565  S
C2037      C2038   1.416       .  A
C2038      C2039   1.520       .  S
C2039      F2044   1.383       .  S
C2042      F2046   1.382       .  S
C2042      F2047   1.381       .  S
C2042      F2048   1.382   1_565  S
C2049      C2050   1.408       .  A
C2049      C2054   1.408       .  A
C2050      C2051   1.423       .  A
C2051      C2052   1.413       .  A
C2051      C2058   1.518       .  S
C2052      C2053   1.404       .  A
C2052      H2057   1.083       .  S
C2053      C2054   1.417       .  A
C2054      C2055   1.518       .  S
C2055      F2060   1.381       .  S
C2055      F2061   1.378       .  S
C2058      F2062   1.383   1_655  S
C2058      F2063   1.381       .  S
C2058      F2064   1.385       .  S
C2065      C2066   1.405       .  A
C2065      C2070   1.396       .  A
C2065      H2072   1.083       .  S
C2066      C2067   1.432       .  A
C2067      C2068   1.412       .  A
C2067      C2074   1.516       .  S
C2068      C2069   1.400       .  A
C2068      H2073   1.083       .  S
C2069      C2070   1.415       .  A
C2070      C2071   1.509       .  S
C2071      F2075   1.385       .  S
C2074      F2078   1.378       .  S
C2074      F2079   1.383       .  S
C2074      F2080   1.385       .  S
C2081      C2082   1.412       .  A
C2081      C2086   1.408       .  A
C2081      H2088   1.073       .  S
C2082      C2083   1.422       .  A
C2083      C2084   1.405       .  A
C2083      C2090   1.515       .  S
C2084      C2085   1.402       .  A
C2084      H2089   1.083       .  S
C2085      C2086   1.411       .  A
C2086      C2087   1.520       .  S
C2087      F2091   1.385       .  S
C2087      F2092   1.380       .  S
C2087      F2093   1.379       .  S
C2090      F2094   1.383       .  S
C2090      F2095   1.378       .  S
C2090      F2096   1.385       .  S
C2097      C2098   1.408       .  A
C2097      C2102   1.404       .  A
C2097      H2104   1.082       .  S
C2099      C2100   1.408       .  A
C2100      H2105   1.083       .  S
C2101      C2102   1.413       .  A
C2102      C2103   1.520       .  S
C2103      F2107   1.385       .  S
C2103      F2108   1.382       .  S
C2103      F2109   1.382       .  S
C2106      F2110   1.378       .  S
C2106      F2111   1.383       .  S
C2106      F2112   1.386       .  S
C2113      C2114   1.406       .  A
C2114      C2115   1.418       .  A
C2115      C2116   1.398       .  A
C2115      C2122   1.519       .  S
C2116      C2117   1.394       .  A
C2116      H2121   1.084       .  S
C2118      C2119   1.516       .  S
C2119      F2123   1.384       .  S
C2119      F2124   1.383       .  S
C2119      F2125   1.383       .  S
C2122      F2126   1.382       .  S
C2122      F2127   1.382       .  S
C2122      F2128   1.381       .  S
C2129      C2130   1.403       .  A
C2129      C2134   1.400       .  A
C2129      H2136   1.076       .  S
C2130      C2131   1.418       .  A
C2131      C2132   1.409       .  A
C2131      C2138   1.519       .  S
C2132      C2133   1.407       .  A
C2132      H2137   1.084       .  S
C2133      C2134   1.413       .  A
C2134      C2135   1.521       .  S
C2135      F2140   1.382       .  S
C2138      F2142   1.383       .  S
C2138      F2143   1.383       .  S
C2138      F2144   1.385       .  S
