geometry optimzed in LAMMPS
_audit_creation_date              2020-11-30 
_audit_creation_method            'lammps2cif' 
_symmetry_space_group_name_H-M    'P1' 
_symmetry_Int_Tables_number       1 
_symmetry_cell_setting            triclinic 
loop_ 
_symmetry_equiv_pos_as_xyz 
  x,y,z 
_cell_length_a                    33.63591071012614 
_cell_length_b                    34.1913193379292 
_cell_length_c                    58.21464774590171 
_cell_angle_alpha                 89.91080734544241 
_cell_angle_beta                  90.0032256785233 
_cell_angle_gamma                 89.70624049882633 
loop_ 
_atom_site_label 
_atom_site_type_symbol 
_atom_site_fract_x 
_atom_site_fract_y 
_atom_site_fract_z 
_atom_site_charge 
C1          C  0.24854677  0.50210927  0.25020775    -0.02910
C2          C  0.47863204  0.24727245  0.00154906     0.00150
C3          C  0.02015423  0.24776625  0.00068998     0.00150
C4          C  0.25208086  0.00223480  0.75319576    -0.02910
C5          C  0.99862683  0.24564150  0.74973525    -0.02910
C6          C  0.24765526  0.48441362  0.00049491     0.00150
C7          C  0.24784153  0.02537036  0.00091580     0.00150
C8          C  0.25002520  0.37839332  0.92212941     0.42040
N9          N  0.26697448  0.33498346  0.89720307     0.00930
C10         C  0.14441801  0.22559006  0.82699807    -0.06950
H11         H  0.13497994  0.19239448  0.91749628     0.06420
C12         C  0.27967956  0.14728998  0.91110761    -0.07300
Co13       Co  0.19646517  0.30524319  0.87165068     0.74180
N14         N  0.16438495  0.23501118  0.89596790    -0.26480
Co15       Co  0.19528211  0.20385560  0.87031456     0.74070
C16         C  0.24412659  0.13016536  0.92106611     0.42140
N17         N  0.32890681  0.23242302  0.89705362     0.00550
N18         N  0.22691860  0.17122933  0.89489408     0.00650
N19         N  0.14511288  0.29160750  0.82875031    -0.47320
H20         H  0.18335084  0.36704412  0.91559737     0.06410
N21         N  0.16513844  0.27365208  0.89641654     0.00940
N22         N  0.22776360  0.17479438  0.84489228     0.00680
C23         C  0.24559126  0.13779985  0.81706877     0.42280
N24         N  0.32907757  0.27101645  0.89778613    -0.25930
C25         C  0.21823796  0.35791196  0.82984629    -0.06850
N26         N  0.28135241  0.36088030  0.91180897    -0.47040
N27         N  0.21359854  0.15221792  0.82834322    -0.47260
C28         C  0.25513045  0.37083322  0.81911826     0.42050
N29         N  0.16598130  0.27562336  0.84575297     0.00920
N30         N  0.33161404  0.27369441  0.84821591    -0.25950
N31         N  0.22779676  0.33482401  0.89691168    -0.26450
N32         N  0.32954729  0.23541831  0.84668182     0.00560
H33         H  0.36535875  0.31711073  0.83005735     0.06450
H34         H  0.31185531  0.14576009  0.82525530     0.06490
N35         N  0.16573176  0.23705750  0.84525615    -0.26500
N36         N  0.26615772  0.17177959  0.89496145    -0.26110
N37         N  0.26921557  0.33412095  0.84761758     0.00930
C38         C  0.12881356  0.25824984  0.92535124     0.42330
C39         C  0.35236175  0.28237238  0.91512579    -0.07360
N40         N  0.26699101  0.17508523  0.84536652    -0.26110
H41         H  0.31062395  0.14126246  0.91477179     0.06470
N42         N  0.14414848  0.28865418  0.91357715    -0.47330
H43         H  0.35948031  0.31227421  0.91939670     0.06460
C44         C  0.36943953  0.25206755  0.81951133     0.42160
C45         C  0.21432280  0.36033459  0.91255494    -0.06860
Co46       Co  0.29974080  0.30397679  0.87288547     0.73820
N47         N  0.35116879  0.21622243  0.91333446    -0.47050
C48         C  0.13147412  0.26177594  0.81581634     0.42430
N49         N  0.28549271  0.35516187  0.83108734    -0.47040
Co50       Co  0.29840548  0.20322269  0.87101085     0.73890
C51         C  0.28091002  0.15259945  0.82841254    -0.07360
C52         C  0.14168944  0.22254530  0.91352913    -0.06930
N53         N  0.22997349  0.33505121  0.84724467    -0.26450
N54         N  0.21240203  0.14641276  0.91025704    -0.47220
H55         H  0.13831251  0.19565448  0.82225272     0.06430
C56         C  0.35677979  0.28690803  0.83219074    -0.07340
Cl57       Cl  0.24743087  0.25402535  0.87162125    -0.50340
C58         C  0.36677522  0.24602619  0.92548131     0.42190
H59         H  0.18780014  0.36515985  0.82555479     0.06400
N60         N  0.35127231  0.22138389  0.82964136    -0.47050
C61         C  0.13184061  0.25143861  0.18427461     0.42040
N62         N  0.16414269  0.26737936  0.15400726     0.00930
C63         C  0.29128499  0.14394196  0.09460629    -0.06950
H64         H  0.31598280  0.15698492  0.18204554     0.06420
C65         C  0.34918295  0.29429533  0.17277918    -0.07300
Co66       Co  0.20029116  0.19783705  0.13069305     0.74180
N67         N  0.27139485  0.17645233  0.15812088    -0.26480
Co68       Co  0.30210673  0.20616715  0.13263021     0.74070
C69         C  0.36323362  0.25988922  0.18555147     0.42140
N70         N  0.26044867  0.33582129  0.15356392     0.00550
N71         N  0.32751812  0.24131759  0.15720865     0.00650
N72         N  0.22455112  0.14118013  0.09188824    -0.47320
H73         H  0.14323864  0.18587547  0.17823425     0.06410
N74         N  0.23264263  0.17163139  0.15704217     0.00940
N75         N  0.33208632  0.23797865  0.10695333     0.00680
C76         C  0.37121128  0.25580387  0.07979791     0.42280
N77         N  0.22126900  0.33344356  0.15341983    -0.25930
C78         C  0.15023777  0.20872802  0.08674017    -0.06850
N79         N  0.14287169  0.28197840  0.17111314    -0.47040
N80         N  0.35724578  0.22429102  0.09134058    -0.47260
C81         C  0.13341390  0.24126558  0.07392336     0.42050
N82         N  0.23587526  0.16787638  0.10700139     0.00920
N83         N  0.22261049  0.33115701  0.10357002    -0.25950
N84         N  0.16688323  0.22889766  0.15477394    -0.26450
N85         N  0.26177662  0.33344274  0.10365455     0.00560
H86         H  0.17721318  0.36070703  0.08398633     0.06450
H87         H  0.35597151  0.32082070  0.08500775     0.06490
N88         N  0.27480878  0.17045611  0.10852728    -0.26500
N89         N  0.32682163  0.27969090  0.15574305    -0.26110
N90         N  0.16514746  0.26364024  0.10320795     0.00930
C91         C  0.25054145  0.13918985  0.18693053     0.42330
C92         C  0.20710534  0.35619046  0.17041214    -0.07360
N93         N  0.32882175  0.27644817  0.10608883    -0.26110
H94         H  0.35528500  0.32494463  0.17551647     0.06470
N95         N  0.21894608  0.14895834  0.17371952    -0.47330
H96         H  0.17608642  0.36117022  0.17436722     0.06460
C97         C  0.24351797  0.37211006  0.07659620     0.42160
C98         C  0.14676130  0.21607658  0.17318125    -0.06860
Co99       Co  0.19221206  0.29948411  0.12844440     0.73820
N100        N  0.27432002  0.35921011  0.16971495    -0.47050
C101        C  0.25790711  0.12454861  0.08307325     0.42430
N102        N  0.14302720  0.27453164  0.08532173    -0.47040
Co103      Co  0.29493259  0.30690956  0.12963124     0.73890
C104        C  0.35214342  0.29032705  0.08937947    -0.07360
C105        C  0.28518834  0.15813126  0.17678682    -0.06930
N106        N  0.16925664  0.22522780  0.10439941    -0.26450
N107        N  0.34833696  0.22843737  0.17483531    -0.47220
H108        H  0.32262633  0.13744150  0.09463699     0.06430
C109        C  0.20834357  0.35484551  0.08719715    -0.07340
Cl110      Cl  0.24736944  0.25258594  0.13014174    -0.50340
C111        C  0.24254167  0.37264923  0.18127892     0.42190
H112        H  0.14788798  0.17768697  0.08352933     0.06400
N113        N  0.27552574  0.35764158  0.08778333    -0.47050
C114        C  0.12025075  0.00163301  0.68524087     0.42040
N115        N  0.08257605  0.48249440  0.65797815     0.00930
C116        C  0.46838470  0.09909909  0.58548349    -0.06950
H117        H  0.43273271  0.10958663  0.66959815     0.06420
C118        C  0.39488121  0.46978921  0.67309781    -0.07300
Co119      Co  0.05205838  0.04908639  0.62980996     0.74180
N120        N  0.47916151  0.08056873  0.65197605    -0.26480
Co121      Co  0.44889959  0.04755892  0.62803606     0.74070
C122        C  0.37953394  0.00625250  0.68258833     0.42140
N123        N  0.48213309  0.42067763  0.66029606     0.00550
N124        N  0.41776355  0.01926325  0.65419721     0.00650
N125        N  0.03528277  0.10235563  0.58806117    -0.47320
H126        H  0.11222785  0.06632270  0.67523240     0.06410
N127        N  0.01815457  0.08066835  0.65355589     0.00940
N128        N  0.41897817  0.01294031  0.60440963     0.00680
C129        C  0.37698909  0.99394344  0.57924144     0.42280
N130        N  0.02130570  0.42156763  0.66042470    -0.25930
C131        C  0.10956355  0.02473122  0.58963451    -0.06850
N132        N  0.10526861  0.46964593  0.67496584    -0.47040
N133        N  0.39402466  0.02585219  0.58845278    -0.47260
C134        C  0.12595692  0.98771997  0.58110142     0.42050
N135        N  0.02056267  0.07741957  0.60329940     0.00920
N136        N  0.02296179  0.41347938  0.61041559    -0.25950
N137        N  0.08227010  0.02095732  0.65627825    -0.26450
N138        N  0.48380021  0.41219608  0.61023810     0.00560
H139        H  0.06802662  0.38327616  0.59104716     0.06450
H140        H  0.38586186  0.42925532  0.58918950     0.06490
N141        N  0.48137673  0.07572133  0.60244017    -0.26500
N142        N  0.41842263  0.48077536  0.65580782    -0.26110
N143        N  0.08502863  0.47591060  0.60835223     0.00930
C144        C  0.49815778  0.11718132  0.68157034     0.42330
C145        C  0.03460825  0.40206205  0.67887140    -0.07360
N146        N  0.41925472  0.47435159  0.60632958    -0.26110
H147        H  0.38877132  0.43994797  0.67810111     0.06470
N148        N  0.03076306  0.10216623  0.67100682    -0.47330
H149        H  0.06547559  0.39647135  0.68296517     0.06460
C150        C  0.50162155  0.36929419  0.58495195     0.42160
C151        C  0.10539466  0.03576155  0.67283809    -0.06860
Co152      Co  0.05340201  0.44790526  0.63419848     0.73820
N153        N  0.46760898  0.40034050  0.67780011    -0.47050
C154        C  0.50417268  0.11736197  0.57609724     0.42430
N155        N  0.10908834  0.45874763  0.59336806    -0.47040
Co156      Co  0.45039253  0.44632932  0.63307387     0.73890
C157        C  0.39371238  0.45970347  0.59091933    -0.07360
C158        C  0.46401168  0.10365692  0.66817204    -0.06930
N159        N  0.08471303  0.01450781  0.60658822    -0.26450
N160        N  0.39464143  0.03578758  0.66992329    -0.47220
H161        H  0.43750693  0.10470671  0.58144869     0.06430
C162        C  0.03692345  0.38817764  0.59471838    -0.07340
Cl163      Cl  0.50121326  0.99771030  0.63100943    -0.50340
C164        C  0.49905071  0.38836821  0.69063193     0.42190
H165        H  0.11621225  0.05431296  0.58435195     0.06400
N166        N  0.46999914  0.38621626  0.59543144    -0.47050
C167        C  0.49021231  0.38143678  0.31880617     0.42040
N168        N  0.01016294  0.41895069  0.34561274     0.00930
C169        C  0.39616476  0.04355587  0.41211965    -0.06950
H170        H  0.39992677  0.07025829  0.32150997     0.06420
C171        C  0.04081373  0.10103539  0.32684288    -0.07300
Co172      Co  0.44365429  0.45548523  0.37143080     0.74180
N173        N  0.42058106  0.02647031  0.34509594    -0.26480
Co174      Co  0.45284527  0.05702794  0.36960941     0.74070
C175        C  0.50638611  0.11683330  0.31417957     0.42140
N176        N  0.08005008  0.01390089  0.34362779     0.00550
N177        N  0.48679123  0.08340902  0.34382226     0.00650
N178        N  0.39324914  0.47750775  0.41250277    -0.47320
H179        H  0.42435128  0.39378957  0.32698632     0.06410
N180        N  0.41562217  0.48826226  0.34612667     0.00940
N181        N  0.48760054  0.08669300  0.39382623     0.00680
C182        C  0.50663343  0.12950100  0.41879492     0.42280
N183        N  0.07589017  0.47567181  0.34355656    -0.25930
C184        C  0.46018429  0.40096867  0.41376421    -0.06850
N185        N  0.02289679  0.39487620  0.32945455    -0.47040
N186        N  0.47472443  0.11402572  0.40808894    -0.47260
C187        C  0.49557689  0.38217298  0.42354503     0.42050
N188        N  0.41706269  0.49037264  0.39613361     0.00920
N189        N  0.08006261  0.47572928  0.39331973    -0.25950
N190        N  0.47111129  0.42156275  0.34646285    -0.26450
N191        N  0.08476445  0.01385367  0.39364499     0.00560
H192        H  0.10636249  0.42829148  0.41065279     0.06450
H193        H  0.07266820  0.11222397  0.41319638     0.06490
N194        N  0.41955609  0.02894429  0.39542158    -0.26500
N195        N  0.02569783  0.08057610  0.34433596    -0.26110
N196        N  0.01295943  0.41937919  0.39554016     0.00930
C197        C  0.38295984  0.00589619  0.31627391     0.42330
C198        C  0.09419350  0.46131077  0.32493713    -0.07360
N199        N  0.02670215  0.08292144  0.39415448    -0.26110
H200        H  0.07224051  0.10428382  0.32442997     0.06470
N201        N  0.39283635  0.47474919  0.32937898    -0.47330
H202        H  0.09688841  0.43073210  0.32047543     0.06460
C203        C  0.12789414  0.99158498  0.41802195     0.42160
C204        C  0.45563540  0.39857450  0.33011502    -0.06860
Co205      Co  0.04530522  0.44698040  0.36956487     0.73820
N206        N  0.10065203  0.02685498  0.32586044    -0.47050
C207        C  0.37887325  0.00920709  0.42341371     0.42430
N208        N  0.02709145  0.39503813  0.41131465    -0.47040
Co209      Co  0.05512247  0.04826964  0.36927125     0.73890
C210        C  0.04142016  0.10810636  0.40971722    -0.07360
C211        C  0.40165396  0.04002680  0.32656963    -0.06930
N212        N  0.47390782  0.42304045  0.39642565    -0.26450
N213        N  0.47419318  0.10511405  0.32640589    -0.47220
H214        H  0.39058686  0.07421441  0.41525472     0.06430
C215        C  0.10467910  0.45934708  0.40840431    -0.07340
Cl216      Cl  0.49926962  0.00200161  0.37026048    -0.50340
C217        C  0.10987613  0.99534035  0.31301949     0.42190
H218        H  0.42925215  0.39743408  0.41833975     0.06400
N219        N  0.11301604  0.02460176  0.40818181    -0.47050
C220        C  0.00333942  0.27240939  0.50138503     0.00150
C221        C  0.00485267  0.23136735  0.50015741     0.00150
C222        C  0.26874693  0.49225874  0.50075337     0.00150
C223        C  0.22725485  0.48911787  0.49975588     0.00150
C224        C  0.99901242  0.25300061  0.25068261    -0.02910
C225        C  0.00366453  0.35830955  0.27935261    -0.02270
C226        C  0.49146849  0.35001465  0.30170414     0.07410
C227        C  0.48741497  0.31137579  0.30879754    -0.02380
C228        C  0.49803011  0.28070862  0.29392220    -0.02380
C229        C  0.50192306  0.28734603  0.26937825     0.07550
C230        C  0.00838112  0.32795461  0.26306656    -0.02580
Br231      Br  0.02432126  0.34644856  0.23322680    -0.01130
Br232      Br  0.01032912  0.41275063  0.27099243    -0.01200
Br233      Br  0.52120000  0.23748426  0.31097908    -0.01160
Br234      Br  0.47031969  0.30066974  0.34000315    -0.01140
C235        C  0.03432327  0.18472748  0.26336903    -0.02270
C236        C  0.50061451  0.21134290  0.26330150     0.07410
C237        C  0.46644553  0.19698542  0.27566354    -0.02380
C238        C  0.46771216  0.16105940  0.28745888    -0.02380
C239        C  0.50450618  0.14440587  0.29385404     0.07550
C240        C  0.03814527  0.15599400  0.28084649    -0.02580
Br241      Br  0.08994504  0.13215294  0.28469723    -0.01130
Br242      Br  0.07044381  0.17567315  0.23775360    -0.01200
Br243      Br  0.41799831  0.13411249  0.29261673    -0.01160
Br244      Br  0.41770232  0.22576365  0.28063740    -0.01140
C245        C  0.03536957  0.18768416  0.44094663    -0.02270
C246        C  0.50443786  0.16045546  0.43716056     0.07410
C247        C  0.47108300  0.16233634  0.45174581    -0.02380
C248        C  0.47329366  0.18184724  0.47290260    -0.02380
C249        C  0.00420449  0.20913755  0.47735422     0.07550
C250        C  0.03454340  0.21290927  0.46036198    -0.02580
Br251      Br  0.07838688  0.24853735  0.46443296    -0.01130
Br252      Br  0.07660950  0.19418761  0.41820762    -0.01200
Br253      Br  0.43172605  0.17025166  0.49468383    -0.01160
Br254      Br  0.41946493  0.14463509  0.44171158    -0.01140
C255        C  0.47232370  0.32084363  0.44353882    -0.02270
C256        C  0.49804566  0.35321938  0.44264320     0.07410
C257        C  0.02632386  0.35813629  0.46017748    -0.02380
C258        C  0.02965386  0.33053936  0.47812049    -0.02380
C259        C  0.00249984  0.29866295  0.48002758     0.07550
C260        C  0.47276861  0.29526154  0.46263953    -0.02580
Br261      Br  0.42736656  0.26150847  0.46606439    -0.01130
Br262      Br  0.43713099  0.31017235  0.41805756    -0.01200
Br263      Br  0.07348733  0.33735342  0.49908836    -0.01160
Br264      Br  0.05936683  0.40441684  0.46049887    -0.01140
C265        C  0.18168318  0.02371207  0.44252692    -0.02270
C266        C  0.16015221  0.98989160  0.43588089     0.07410
C267        C  0.16732438  0.45487391  0.44817413    -0.02380
C268        C  0.18445148  0.45622576  0.47001958    -0.02380
C269        C  0.20634733  0.48939954  0.47684678     0.07550
C270        C  0.20613191  0.02286494  0.46232915    -0.02580
Br271      Br  0.23148163  0.07070874  0.47204762    -0.01130
Br272      Br  0.17980094  0.07134977  0.42458056    -0.01200
Br273      Br  0.17885874  0.41063190  0.48948922    -0.01160
Br274      Br  0.16623417  0.40401727  0.43379629    -0.01140
C275        C  0.29321787  0.47289328  0.46001879    -0.02270
C276        C  0.29387142  0.49880788  0.47919874     0.07410
C277        C  0.32329500  0.02886505  0.47908457    -0.02380
C278        C  0.35262766  0.02993411  0.46189148    -0.02380
C279        C  0.34860306  0.00731494  0.44194595     0.07550
C280        C  0.31716734  0.48016822  0.44065039    -0.02580
Br281      Br  0.30686131  0.45209868  0.41244944    -0.01130
Br282      Br  0.26874498  0.42209404  0.46123545    -0.01200
Br283      Br  0.40161157  0.05696704  0.46792808    -0.01160
Br284      Br  0.32485896  0.06976092  0.50193146    -0.01140
C285        C  0.16177704  0.00427837  0.52116296    -0.02270
C286        C  0.19966279  0.48470133  0.52056069     0.07410
C287        C  0.20852459  0.45918255  0.53934185    -0.02380
C288        C  0.18580579  0.46122617  0.55978081    -0.02380
C289        C  0.14971077  0.98210130  0.55999911     0.07550
C290        C  0.13580532  0.99867491  0.53966728    -0.02580
Br291      Br  0.07943492  0.00910273  0.53642797    -0.01130
Br292      Br  0.14314046  0.04234848  0.49913453    -0.01200
Br293      Br  0.20409584  0.43549036  0.58732139    -0.01160
Br294      Br  0.24608083  0.41661572  0.53656607    -0.01140
C295        C  0.31201974  0.51509196  0.56107629    -0.02270
C296        C  0.34830903  0.99428326  0.55996806     0.07410
C297        C  0.35761120  0.97323588  0.54015321    -0.02380
C298        C  0.32894928  0.96786072  0.52305719    -0.02380
C299        C  0.29316529  0.49062575  0.52279960     0.07550
C300        C  0.28590165  0.51565979  0.54196619    -0.02580
Br301      Br  0.24488407  0.55542636  0.54136834    -0.01130
Br302      Br  0.29871588  0.54365797  0.58859980    -0.01200
Br303      Br  0.33983966  0.92661199  0.50142598    -0.01160
Br304      Br  0.41191546  0.95705615  0.53461455    -0.01140
C305        C  0.03687428  0.14862663  0.54170516    -0.02270
C306        C  0.50668071  0.14924480  0.55845022     0.07410
C307        C  0.47829290  0.17984054  0.55776447    -0.02380
C308        C  0.47686220  0.20620228  0.53901601    -0.02380
C309        C  0.00656220  0.20513010  0.52151604     0.07550
C310        C  0.03699545  0.17604120  0.52355431    -0.02580
Br311      Br  0.08095627  0.17289129  0.50229260    -0.01130
Br312      Br  0.07884279  0.10995778  0.54328781    -0.01200
Br313      Br  0.42963315  0.23825664  0.53635933    -0.01160
Br314      Br  0.44299633  0.18837253  0.58353176    -0.01140
C315        C  0.46740236  0.34069373  0.55010684    -0.02270
C316        C  0.49957517  0.34013633  0.56564998     0.07410
C317        C  0.03063827  0.31285446  0.56176802    -0.02380
C318        C  0.03210539  0.29052681  0.54128365    -0.02380
C319        C  0.00183502  0.29436104  0.52428714     0.07550
C320        C  0.46997131  0.32089374  0.52894728    -0.02580
Br321      Br  0.42765886  0.33082643  0.50724026    -0.01130
Br322      Br  0.41715271  0.36462836  0.55827802    -0.01200
Br323      Br  0.07946787  0.25978903  0.53578542    -0.00520
Br324      Br  0.06895070  0.30191067  0.58571671    -0.01140
C325        C  0.06037480  0.25347797  0.19321986    -0.02270
C326        C  0.09941645  0.25384230  0.20112231     0.07410
C327        C  0.10716767  0.26073129  0.22441377    -0.02380
C328        C  0.07549566  0.26243891  0.24047943    -0.02380
C329        C  0.03476486  0.25875430  0.23296703     0.07550
C330        C  0.02907888  0.26172799  0.20831269    -0.02580
Br331      Br  0.98741002  0.29181663  0.19300462    -0.01130
Br332      Br  0.04981085  0.24452418  0.16089787    -0.01200
Br333      Br  0.09091808  0.26665388  0.27230105    -0.01160
Br334      Br  0.16187827  0.26377611  0.23431115    -0.01140
C335        C  0.39508684  0.28342744  0.22200024    -0.02270
C336        C  0.39422761  0.25712045  0.20356241     0.07410
C337        C  0.42225788  0.22664803  0.20262905    -0.02380
C338        C  0.45102057  0.22244299  0.21996818    -0.02380
C339        C  0.45810576  0.25316263  0.23654642     0.07550
C340        C  0.42669019  0.28250833  0.23818045    -0.02580
Br341      Br  0.41878647  0.31898893  0.26328392    -0.01130
Br342      Br  0.35091095  0.31978815  0.22559092    -0.01200
Br343      Br  0.47981312  0.17356146  0.21829975    -0.01160
Br344      Br  0.42694468  0.19430241  0.17514442    -0.01140
C345        C  0.28854637  0.09442653  0.04722166    -0.02270
C346        C  0.25808358  0.09499104  0.06394699     0.07410
C347        C  0.22577998  0.06894045  0.06115750    -0.02380
C348        C  0.22237610  0.04547759  0.04120622    -0.02380
C349        C  0.25086139  0.04843466  0.02320341     0.07550
C350        C  0.28314403  0.07461977  0.02631549    -0.02580
Br351      Br  0.32314934  0.08265120  0.00296994    -0.01130
Br352      Br  0.34066146  0.11571881  0.05293896    -0.01200
Br353      Br  0.17536115  0.01357765  0.03798492    -0.01160
Br354      Br  0.18739918  0.06242096  0.08560551    -0.01140
C355        C  0.27328779  0.46039904  0.04041787    -0.02270
C356        C  0.24537992  0.45859500  0.02192213     0.07410
C357        C  0.21706167  0.42760326  0.02241942    -0.02380
C358        C  0.21921181  0.39794793  0.03905434    -0.02380
C359        C  0.24464087  0.40176488  0.05799499     0.07550
C360        C  0.27067401  0.43392093  0.05902826    -0.02580
Br361      Br  0.30271658  0.44242030  0.08615963    -0.01130
Br362      Br  0.31974480  0.49333709  0.03976842    -0.01200
Br363      Br  0.18977638  0.35003979  0.03429576    -0.01160
Br364      Br  0.17223856  0.42526520  0.00183965    -0.01140
C365        C  0.27282772  0.04587656  0.96035196    -0.02270
C366        C  0.24584384  0.05047515  0.97913644     0.07410
C367        C  0.21739431  0.08161309  0.97763278    -0.02380
C368        C  0.21751170  0.10782529  0.95895277    -0.02380
C369        C  0.24267726  0.10136497  0.94012991     0.07550
C370        C  0.26878059  0.06904702  0.94041847    -0.02580
Br371      Br  0.29823772  0.05516151  0.91303541    -0.01130
Br372      Br  0.32045270  0.01423459  0.96219203    -0.01200
Br373      Br  0.18482835  0.15446700  0.95997256    -0.01160
Br374      Br  0.17560267  0.08886346  0.99991082    -0.01140
C375        C  0.22275354  0.43937579  0.94124599    -0.02270
C376        C  0.25263493  0.41029607  0.93952537     0.07410
C377        C  0.28428563  0.41088653  0.95531882    -0.02380
C378        C  0.28171864  0.43385733  0.97522458    -0.02380
C379        C  0.25003546  0.46121445  0.97827192     0.07550
C380        C  0.22095525  0.46432817  0.96055496    -0.02580
Br381      Br  0.17500807  0.49833689  0.96326458    -0.01130
Br382      Br  0.18705768  0.44895706  0.91579238    -0.01200
Br383      Br  0.32442573  0.42811662  0.99717319    -0.01160
Br384      Br  0.33370723  0.38374361  0.94906272    -0.01140
C385        C  0.03132926  0.17999703  0.73275075    -0.02270
C386        C  0.49847583  0.20711382  0.73470283     0.07410
C387        C  0.46352924  0.19606135  0.72195927    -0.02380
C388        C  0.46246350  0.16058522  0.70998220    -0.02380
C389        C  0.49817299  0.14374396  0.70207025     0.07550
C390        C  0.03338473  0.15439316  0.71376138    -0.02580
Br391      Br  0.08539632  0.13607369  0.70457039    -0.01130
Br392      Br  0.06836455  0.16649552  0.75698453    -0.01200
Br393      Br  0.41274272  0.13237061  0.71041281    -0.01160
Br394      Br  0.41598145  0.22691958  0.71835263    -0.01140
C395        C  0.49448040  0.31653703  0.69541021    -0.02270
C396        C  0.49867041  0.35324598  0.70552425     0.07410
C397        C  0.00735700  0.35587140  0.72899696    -0.02380
C398        C  0.00707862  0.32198300  0.74311598    -0.02380
C399        C  0.50198577  0.28333833  0.73338124     0.07550
C400        C  0.50094282  0.28220776  0.70835308    -0.02580
Br401      Br  0.51813756  0.23952987  0.68863668    -0.01130
Br402      Br  0.48271062  0.31362178  0.66269180    -0.01200
Br403      Br  0.00771974  0.33210117  0.77582859    -0.01160
Br404      Br  0.01673817  0.40712900  0.74188833    -0.01140
C405        C  0.06004016  0.26396939  0.80559472    -0.02270
C406        C  0.09952387  0.26483980  0.79836259     0.07410
C407        C  0.10763715  0.25997077  0.77488325    -0.02380
C408        C  0.07597220  0.25610932  0.75888915    -0.02380
C409        C  0.03615849  0.24753720  0.76676237     0.07550
C410        C  0.03206907  0.24584648  0.79138698    -0.02580
Br411      Br  0.01993447  0.19772602  0.80681797    -0.01130
Br412      Br  0.04650948  0.27533734  0.83716530    -0.01200
Br413      Br  0.09087329  0.25829442  0.72695823    -0.01160
Br414      Br  0.16231323  0.25684819  0.76499916    -0.01140
C415        C  0.44661034  0.21165141  0.77778024    -0.02270
C416        C  0.45785201  0.24553314  0.76445406     0.07410
C417        C  0.42872158  0.27712056  0.76524181    -0.02380
C418        C  0.39947002  0.27846093  0.78286172    -0.02380
C419        C  0.39780690  0.24911593  0.79983612     0.07550
C420        C  0.42085655  0.21515609  0.79676187    -0.02580
Br421      Br  0.41937937  0.17277987  0.81911630    -0.01130
Br422      Br  0.45999352  0.15749844  0.77024821    -0.01200
Br423      Br  0.35798802  0.31835255  0.78201695    -0.01160
Br424      Br  0.41862590  0.31476495  0.74066844    -0.01140
C425        C  0.32288867  0.47865131  0.73555437    -0.02270
C426        C  0.28855948  0.00467635  0.73565317     0.07410
C427        C  0.28703719  0.03277798  0.71691970    -0.02380
C428        C  0.31613997  0.03287838  0.69942117    -0.02380
C429        C  0.35048824  0.00982699  0.70157699     0.07550
C430        C  0.35518870  0.48609082  0.72092342    -0.02580
Br431      Br  0.40706428  0.46361491  0.72762107    -0.01130
Br432      Br  0.32738731  0.42634587  0.74877054    -0.01200
Br433      Br  0.30833938  0.06436918  0.67209225    -0.01160
Br434      Br  0.24768100  0.07445029  0.71469387    -0.01140
C435        C  0.14628355  0.02078634  0.72353543    -0.02270
C436        C  0.15155668  0.00079673  0.70290128     0.07410
C437        C  0.18668089  0.98008775  0.69901889    -0.02380
C438        C  0.21494471  0.97623707  0.71663519    -0.02380
C439        C  0.21389977  0.00111001  0.73682960     0.07550
C440        C  0.17838262  0.02544886  0.73893256    -0.02580
Br441      Br  0.17039166  0.07070482  0.75833858    -0.01130
Br442      Br  0.09372276  0.04088129  0.73075044    -0.01200
Br443      Br  0.25089210  0.43258592  0.71243748    -0.01160
Br444      Br  0.19686101  0.95785270  0.66893824    -0.01140
C445        C  0.22812169  0.03740493  0.79162648    -0.02270
C446        C  0.25163870  0.03850096  0.77061592     0.07410
C447        C  0.27606548  0.07314241  0.76806449    -0.02380
C448        C  0.26744211  0.10704588  0.78074804    -0.02380
C449        C  0.24533426  0.10463786  0.80095530     0.07550
C450        C  0.22816345  0.06902534  0.80720846    -0.02580
Br451      Br  0.20510813  0.06347018  0.83760091    -0.01130
Br452      Br  0.19042805  0.99685985  0.79961485    -0.01200
Br453      Br  0.28756319  0.15734423  0.77082311    -0.01160
Br454      Br  0.32886859  0.07618525  0.75444791    -0.01140
C455        C  0.28365552  0.46343149  0.78762280    -0.02270
C456        C  0.25479535  0.46458165  0.76910308     0.07410
C457        C  0.22765985  0.43167884  0.76811916    -0.02380
C458        C  0.23430731  0.39855954  0.78185189    -0.02380
C459        C  0.25893466  0.40069028  0.80104729     0.07550
C460        C  0.28355572  0.43315577  0.80405545    -0.02580
Br461      Br  0.31681088  0.43699611  0.83120187    -0.01130
Br462      Br  0.32653204  0.50057233  0.79107266    -0.01200
Br463      Br  0.20899778  0.34942341  0.77447913    -0.01160
Br464      Br  0.17427831  0.43083326  0.75511886    -0.01140
C465        C  0.11473319  0.22243220  0.03356557    -0.02270
C466        C  0.10367705  0.23749915  0.05527148     0.07410
C467        C  0.06289466  0.24013074  0.06047268    -0.02380
C468        C  0.03470760  0.23002284  0.04369224    -0.02380
C469        C  0.04600542  0.23052193  0.02032783     0.07550
C470        C  0.08550505  0.21777657  0.01628173    -0.02580
Br471      Br  0.09770124  0.18909001  0.98876655    -0.01130
Br472      Br  0.16945962  0.20950404  0.02723653    -0.01200
Br473      Br  0.00056356  0.18804887  0.05343215    -0.01160
Br474      Br  0.04527561  0.24974489  0.09144608    -0.01140
C475        C  0.42101787  0.22181370  0.02551973    -0.02270
C476        C  0.45457524  0.24688213  0.02357602     0.07410
C477        C  0.45938744  0.27641195  0.04060350    -0.02380
C478        C  0.43396618  0.27760946  0.05990190    -0.02380
C479        C  0.39961572  0.25417727  0.06046064     0.07550
C480        C  0.39182767  0.22901751  0.04213418    -0.02580
Br481      Br  0.33832108  0.21091580  0.03714226    -0.01130
Br482      Br  0.41471912  0.17541418  0.00715726    -0.01200
Br483      Br  0.44631392  0.31159338  0.08533659    -0.01160
Br484      Br  0.49791235  0.31768647  0.03705049    -0.01140
C485        C  0.03068262  0.26201255  0.95699063    -0.02270
C486        C  0.04276614  0.26613687  0.98009557     0.07410
C487        C  0.08071191  0.28363355  0.98290486    -0.02380
C488        C  0.10917747  0.28135564  0.96495601    -0.02380
C489        C  0.09929561  0.26239627  0.94416409     0.07550
C490        C  0.05930585  0.25243689  0.94035238    -0.02580
Br491      Br  0.04155826  0.23442628  0.91075795    -0.01130
Br492      Br  0.99467925  0.30142507  0.94547249    -0.01200
Br493      Br  0.16202691  0.30150176  0.96945712    -0.01160
Br494      Br  0.09264730  0.31312021  0.01016832    -0.01140
C495        C  0.41996959  0.27443036  0.97940231    -0.02270
C496        C  0.45256826  0.24794525  0.98044555     0.07410
C497        C  0.45464901  0.21758752  0.96372830    -0.02380
C498        C  0.42719644  0.21680572  0.94531841    -0.02380
C499        C  0.39434255  0.24268512  0.94525024     0.07550
C500        C  0.38919882  0.26846588  0.96369773    -0.02580
Br501      Br  0.33732452  0.29011632  0.97009502    -0.01130
Br502      Br  0.41754460  0.32130740  0.99770841    -0.01200
Br503      Br  0.43492491  0.18028190  0.92048088    -0.01160
Br504      Br  0.49324226  0.17567683  0.96644742    -0.01140
C505        C  0.29123302  0.03469149  0.28252502    -0.02270
C506        C  0.28757157  0.00365715  0.26567163     0.07410
C507        C  0.32094077  0.47685461  0.26407828    -0.02380
C508        C  0.35180797  0.47794529  0.28069657    -0.02380
C509        C  0.35156348  0.00583915  0.29845264     0.07550
C510        C  0.32117374  0.03392783  0.29937192    -0.02580
Br511      Br  0.31478295  0.06615567  0.32676072    -0.01130
Br512      Br  0.25416170  0.07775762  0.28591260    -0.01200
Br513      Br  0.39654868  0.44215964  0.27864693    -0.01160
Br514      Br  0.33357650  0.44567662  0.23709150    -0.01140
C515        C  0.17170753  0.98732475  0.25884651    -0.02270
C516        C  0.21163565  0.99399952  0.26728441     0.07410
C517        C  0.21514816  0.49101791  0.29227131    -0.02380
C518        C  0.18197803  0.49666000  0.30649230    -0.02380
C519        C  0.14393610  0.99448403  0.29733965     0.07550
C520        C  0.13862725  0.98814937  0.27389624    -0.02580
Br521      Br  0.08473916  0.98555687  0.26236832    -0.01130
Br522      Br  0.15771524  0.97906830  0.22716289    -0.01200
Br523      Br  0.18845001  0.50457346  0.33943013    -0.01160
Br524      Br  0.25864383  0.46768711  0.31003934    -0.01140
C525        C  0.28445873  0.05504600  0.22437060    -0.02270
C526        C  0.24936398  0.04392843  0.23732798     0.07410
C527        C  0.21713968  0.07249984  0.23618418    -0.02380
C528        C  0.21926982  0.10504871  0.22086107    -0.02380
C529        C  0.25050848  0.10829242  0.20491480     0.07550
C530        C  0.28226064  0.08187247  0.20629999    -0.02580
Br531      Br  0.31953298  0.07507510  0.18108685    -0.01130
Br532      Br  0.33951480  0.04566115  0.23237489    -0.01200
Br533      Br  0.17930127  0.14614413  0.22156421    -0.01160
Br534      Br  0.17094469  0.07403015  0.25594243    -0.01140
C535        C  0.24843534  0.44301586  0.19074539    -0.02270
C536        C  0.24458180  0.40456973  0.19820784     0.07410
C537        C  0.24234110  0.39646969  0.22158345    -0.02380
C538        C  0.24508100  0.42689922  0.23794963    -0.02380
C539        C  0.24734815  0.46771473  0.23124056     0.07550
C540        C  0.24468896  0.47422974  0.20643542    -0.02580
Br541      Br  0.22048284  0.51873551  0.19094136    -0.01130
Br542      Br  0.25523105  0.45252423  0.15802079    -0.01200
Br543      Br  0.24742387  0.40840787  0.26894262    -0.01160
Br544      Br  0.23778611  0.34214728  0.23079535    -0.01140
C545        C  0.24865759  0.00216076  0.25025601    -0.02910
C546        C  0.47857137  0.74731403  0.00155939     0.00150
C547        C  0.02008018  0.74777974  0.00069807     0.00150
C548        C  0.25204382  0.50224237  0.75319221    -0.02910
C549        C  0.99859577  0.74563873  0.74973435    -0.02910
C550        C  0.24763391  0.98441553  0.00047358     0.00150
C551        C  0.24786040  0.52537002  0.00094058     0.00150
C552        C  0.24999660  0.87838203  0.92212202     0.42040
N553        N  0.26693943  0.83496426  0.89720094     0.00930
C554        C  0.14437286  0.72556549  0.82700919    -0.06950
H555        H  0.13492305  0.69238639  0.91750470     0.06420
C556        C  0.27965028  0.64728500  0.91112005    -0.07300
Co557      Co  0.19642571  0.80522510  0.87165427     0.74180
N558        N  0.16434148  0.73499798  0.89597856    -0.26480
Co559      Co  0.19524147  0.70383738  0.87032664     0.74070
C560        C  0.24410147  0.63016398  0.92108574     0.42140
N561        N  0.32887156  0.73240758  0.89705583     0.00550
N562        N  0.22688398  0.67121639  0.89490814     0.00650
N563        N  0.14507311  0.79158351  0.82875619    -0.47320
H564        H  0.18332027  0.86703665  0.91559505     0.06410
N565        N  0.16509456  0.77363920  0.89642414     0.00940
N566        N  0.22772188  0.67477355  0.84490399     0.00680
C567        C  0.24554710  0.63779028  0.81707499     0.42280
N568        N  0.32904116  0.77100082  0.89778643    -0.25930
C569        C  0.21820429  0.85789625  0.82984660    -0.06850
N570        N  0.28132131  0.86086487  0.91180261    -0.47040
N571        N  0.21355520  0.65220209  0.82835305    -0.47260
C572        C  0.25510016  0.87081628  0.81911998     0.42050
N573        N  0.16594008  0.77560132  0.84575995     0.00920
N574        N  0.33157498  0.77367336  0.84821568    -0.25950
N575        N  0.22776159  0.83480684  0.89691157    -0.26450
N576        N  0.32951042  0.73539722  0.84668236     0.00560
H577        H  0.36531546  0.81709209  0.83005679     0.06450
H578        H  0.31181208  0.64575338  0.82525697     0.06490
N579        N  0.16568814  0.73703522  0.84526629    -0.26500
N580        N  0.26612332  0.67176673  0.89497118    -0.26110
N581        N  0.26917758  0.83409682  0.84761747     0.00930
C582        C  0.12875141  0.75824346  0.92535446     0.42330
C583        C  0.35232027  0.78235998  0.91512738    -0.07360
N584        N  0.26694941  0.67506659  0.84537526    -0.26110
H585        H  0.31059598  0.64126143  0.91478268     0.06470
N586        N  0.14409434  0.78864479  0.91358014    -0.47330
H587        H  0.35943500  0.81226263  0.91939827     0.06460
C588        C  0.36940100  0.75204991  0.81951013     0.42160
C589        C  0.21429126  0.86032274  0.91255246    -0.06860
Co590      Co  0.29970281  0.80395599  0.87288495     0.73820
N591        N  0.35112811  0.71620958  0.91333993    -0.47050
C592        C  0.13143168  0.76175028  0.81582482     0.42430
N593        N  0.28545822  0.85513831  0.83108890    -0.47040
Co594      Co  0.29836831  0.70320477  0.87101581     0.73890
C595        C  0.28086679  0.65258742  0.82841808    -0.07360
C596        C  0.14163642  0.72253630  0.91353728    -0.06930
N597        N  0.22993547  0.83503074  0.84724457    -0.26450
N598        N  0.21237292  0.64640644  0.91027714    -0.47220
H599        H  0.13826605  0.69562939  0.82226559     0.06430
C600        C  0.35673872  0.78688875  0.83218997    -0.07340
Cl601      Cl  0.24739169  0.75400656  0.87162632    -0.50340
C602        C  0.36673025  0.74601571  0.92548645     0.42190
H603        H  0.18776777  0.86514995  0.82555534     0.06400
N604        N  0.35123687  0.72136432  0.82964148    -0.47050
C605        C  0.13172423  0.75147061  0.18424133     0.42040
N606        N  0.16405706  0.76743666  0.15399118     0.00930
C607        C  0.29125871  0.64400966  0.09461608    -0.06950
H608        H  0.31588318  0.65704076  0.18205987     0.06420
C609        C  0.34911106  0.79436970  0.17279627    -0.07300
Co610      Co  0.20023421  0.69790463  0.13067774     0.74180
N611        N  0.27131458  0.67653391  0.15812665    -0.26480
Co612      Co  0.30204530  0.70624325  0.13264269     0.74070
C613        C  0.36316213  0.75996333  0.18556969     0.42140
N614        N  0.26036736  0.83589046  0.15357039     0.00550
N615        N  0.32743960  0.74139315  0.15722793     0.00650
N616        N  0.22452743  0.64123892  0.09188322    -0.47320
H617        H  0.14314895  0.68591383  0.17819753     0.06410
N618        N  0.23256492  0.67170416  0.15703283     0.00940
N619        N  0.33204017  0.73805449  0.10697288     0.00680
C620        C  0.37117207  0.75587797  0.07982000     0.42280
N621        N  0.22118656  0.83352166  0.15342148    -0.25930
C622        C  0.15021329  0.70879666  0.08671687    -0.06850
N623        N  0.14276286  0.78202248  0.17109149    -0.47040
N624        N  0.35720517  0.72436650  0.09136338    -0.47260
C625        C  0.13338452  0.74133242  0.07390168     0.42050
N626        N  0.23583765  0.66794465  0.10699457     0.00920
N627        N  0.22255279  0.83122627  0.10357248    -0.25950
N628        N  0.16680348  0.72895453  0.15475165    -0.26450
N629        N  0.26171891  0.83351084  0.10366212     0.00560
H630        H  0.17716288  0.86076475  0.08397753     0.06450
H631        H  0.35592099  0.82089460  0.08502388     0.06490
N632        N  0.27476967  0.67052718  0.10853093    -0.26500
N633        N  0.32674605  0.77976598  0.15576110    -0.26110
N634        N  0.16509819  0.76370840  0.10319341     0.00930
C635        C  0.25043782  0.63924977  0.18691904     0.42330
C636        C  0.20702356  0.85629321  0.17040502    -0.07360
N637        N  0.32877139  0.77652334  0.10610613    -0.26110
H638        H  0.35522033  0.82501851  0.17552968     0.06470
N639        N  0.21885576  0.64901376  0.17369754    -0.47330
H640        H  0.17600457  0.86128932  0.17435310     0.06460
C641        C  0.24347071  0.87216540  0.07659645     0.42160
C642        C  0.14666660  0.71611835  0.17314936    -0.06860
Co643      Co  0.19214243  0.79955307  0.12843896     0.73820
N644        N  0.27423892  0.85928846  0.16971604    -0.47050
C645        C  0.25789092  0.62460510  0.08307854     0.42430
N646        N  0.14298053  0.77459822  0.08530578    -0.47040
Co647      Co  0.29486523  0.80698106  0.12964355     0.73890
C648        C  0.35209727  0.79040148  0.08939813    -0.07360
C649        C  0.28509103  0.65821080  0.17679606    -0.06930
N650        N  0.16921831  0.72529669  0.10438038    -0.26450
N651        N  0.34825913  0.72851289  0.17485444    -0.47220
H652        H  0.32260068  0.63751260  0.09465468     0.06430
C653        C  0.20829209  0.85490775  0.08719497    -0.07340
Cl654      Cl  0.24730561  0.75265748  0.13014301    -0.50340
C655        C  0.24246390  0.87275415  0.18127129     0.42190
H656        H  0.14787022  0.67775558  0.08350428     0.06400
N657        N  0.27547469  0.85770201  0.08778915    -0.47050
C658        C  0.12018930  0.50162482  0.68525173     0.42040
N659        N  0.08263631  0.98250239  0.65796827     0.00930
C660        C  0.46834057  0.59908643  0.58547998    -0.06950
H661        H  0.43267019  0.60957484  0.66959146     0.06420
C662        C  0.39493901  0.96980020  0.67310739    -0.07300
Co663      Co  0.05200665  0.54907549  0.62981413     0.74180
N664        N  0.47910190  0.58055807  0.65197144    -0.26480
Co665      Co  0.44884768  0.54754394  0.62802822     0.74070
C666        C  0.37947626  0.50624410  0.68257582     0.42140
N667        N  0.48218853  0.92069276  0.66029940     0.00550
N668        N  0.41770774  0.51924889  0.65418588     0.00650
N669        N  0.03523845  0.60234275  0.58806184    -0.47320
H670        H  0.11217153  0.56631394  0.67524036     0.06410
N671        N  0.01809462  0.58065885  0.65355418     0.00940
N672        N  0.41893175  0.51292157  0.60439924     0.00680
C673        C  0.37694219  0.49391901  0.57923179     0.42280
N674        N  0.02135954  0.92157600  0.66042413    -0.25930
C675        C  0.10953603  0.52471622  0.58965213    -0.06850
N676        N  0.10533020  0.96965368  0.67495527    -0.47040
N677        N  0.39397550  0.52583009  0.58844255    -0.47260
C678        C  0.12593481  0.48770238  0.58112635     0.42050
N679        N  0.02051711  0.57740417  0.60329847     0.00920
N680        N  0.02299998  0.91349110  0.61041462    -0.25950
N681        N  0.08221083  0.52094927  0.65628731    -0.26450
N682        N  0.48384053  0.91221178  0.61024258     0.00560
H683        H  0.06805345  0.88327418  0.59104420     0.06450
H684        H  0.38590419  0.92927794  0.58919676     0.06490
N685        N  0.48133085  0.57570604  0.60243563    -0.26500
N686        N  0.41847881  0.98078975  0.65581748    -0.26110
N687        N  0.08507096  0.97592175  0.60833889     0.00930
C688        C  0.49809479  0.61717831  0.68156489     0.42330
C689        C  0.03466048  0.90206352  0.67886963    -0.07360
N690        N  0.41929903  0.97437035  0.60633898    -0.26110
H691        H  0.38882856  0.93995780  0.67810803     0.06470
N692        N  0.03069976  0.60216091  0.67100384    -0.47330
H693        H  0.06552724  0.89646505  0.68296129     0.06460
C694        C  0.50164724  0.86930355  0.58495829     0.42160
C695        C  0.10533481  0.53575332  0.67284767    -0.06860
Co696      Co  0.05345196  0.94791453  0.63419230     0.73820
N697        N  0.46766363  0.90035825  0.67780419    -0.47050
C698        C  0.50412924  0.61734994  0.57609664     0.42430
N699        N  0.10912174  0.95876230  0.59334753    -0.47040
Co700      Co  0.45044221  0.94634590  0.63308053     0.73890
C701        C  0.39375579  0.95972540  0.59092823    -0.07360
C702        C  0.46394966  0.60364820  0.66816641    -0.06930
N703        N  0.08467252  0.51449612  0.60659975    -0.26450
N704        N  0.39458547  0.53577654  0.66991027    -0.47220
H705        H  0.43746340  0.60469793  0.58144517     0.06430
C706        C  0.03695237  0.88818321  0.59471821    -0.07340
Cl707      Cl  0.50116180  0.49769760  0.63100782    -0.50340
C708        C  0.49910379  0.88837628  0.69063377     0.42190
H709        H  0.11618877  0.55429682  0.58436888     0.06400
N710        N  0.47003077  0.88623027  0.59544022    -0.47050
C711        C  0.49028856  0.88139369  0.31881710     0.42040
N712        N  0.01022622  0.91889434  0.34562925     0.00930
C713        C  0.39604347  0.54352649  0.41212714    -0.06950
H714        H  0.39987519  0.57023066  0.32149298     0.06420
C715        C  0.04063858  0.60120230  0.32689147    -0.07300
Co716      Co  0.44375065  0.95549132  0.37142671     0.74180
N717        N  0.42046994  0.52645576  0.34510256    -0.26480
Co718      Co  0.45272114  0.55701451  0.36962172     0.74070
C719        C  0.50621030  0.61685015  0.31420246     0.42140
N720        N  0.07995919  0.51401022  0.34365368     0.00550
N721        N  0.48666024  0.58339504  0.34383775     0.00650
N722        N  0.39335622  0.97753954  0.41249720    -0.47320
H723        H  0.42442747  0.89379318  0.32697699     0.06410
N724        N  0.41574603  0.98827299  0.34611374     0.00940
N725        N  0.48745338  0.58669555  0.39384791     0.00680
C726        C  0.50647019  0.62950425  0.41881901     0.42280
N727        N  0.07596123  0.97556614  0.34354647    -0.25930
C728        C  0.46025606  0.90099016  0.41377182    -0.06850
N729        N  0.02295139  0.89480730  0.32947589    -0.47040
N730        N  0.47456473  0.61402687  0.40810891    -0.47260
C731        C  0.49564114  0.88218670  0.42355681     0.42050
N732        N  0.41717028  0.99039730  0.39612612     0.00920
N733        N  0.08016909  0.97567548  0.39331090    -0.25950
N734        N  0.47119135  0.92153949  0.34646557    -0.26450
N735        N  0.08464189  0.51390951  0.39366902     0.00560
H736        H  0.10645625  0.92824900  0.41066367     0.06450
H737        H  0.07248777  0.61225465  0.41322739     0.06490
N738        N  0.41943810  0.52892024  0.39542996    -0.26500
N739        N  0.02555616  0.58066072  0.34436503    -0.26110
N740        N  0.01302840  0.91936735  0.39555263     0.00930
C741        C  0.38283423  0.50588158  0.31628310     0.42330
C742        C  0.09421843  0.96117488  0.32492043    -0.07360
N743        N  0.02653828  0.58294313  0.39417986    -0.26110
H744        H  0.07205957  0.60463998  0.32450799     0.06470
N745        N  0.39296952  0.97475874  0.32936197    -0.47330
H746        H  0.09688364  0.93059031  0.32046731     0.06460
C747        C  0.12777382  0.49162424  0.41804183     0.42160
C748        C  0.45571243  0.89855596  0.33011559    -0.06860
Co749      Co  0.04538310  0.94692404  0.36956946     0.73820
N750        N  0.10058651  0.52699774  0.32590468    -0.47050
C751        C  0.37875968  0.50917319  0.42341854     0.42430
N752        N  0.02714778  0.89502599  0.41133012    -0.47040
Co753      Co  0.05499274  0.54833943  0.36929864     0.73890
C754        C  0.04124222  0.60812586  0.40974538    -0.07360
C755        C  0.40156035  0.54000610  0.32656837    -0.06930
N756        N  0.47398916  0.92304833  0.39643012    -0.26450
N757        N  0.47403312  0.60505906  0.32641243    -0.47220
H758        H  0.39046074  0.57418408  0.41526386     0.06430
C759        C  0.10478478  0.95930251  0.40839997    -0.07340
Cl760      Cl  0.49916336  0.50201940  0.37027203    -0.50340
C761        C  0.10985532  0.49550041  0.31306101     0.42190
H762        H  0.42932201  0.89746679  0.41834609     0.06400
N763        N  0.11288677  0.52464913  0.40821332    -0.47050
C764        C  0.00330362  0.77241465  0.50139830     0.00150
C765        C  0.00478414  0.73137236  0.50017009     0.00150
C766        C  0.26883628  0.99229904  0.50074542     0.00150
C767        C  0.22734381  0.98915604  0.49974787     0.00150
C768        C  0.99892698  0.75298963  0.25067837    -0.02910
C769        C  0.00372731  0.85827671  0.27936694    -0.02270
C770        C  0.49154520  0.84997741  0.30171246     0.07410
C771        C  0.48746771  0.81133801  0.30880109    -0.02380
C772        C  0.49807515  0.78067405  0.29392342    -0.02380
C773        C  0.50194260  0.78731813  0.26937946     0.07550
C774        C  0.00838432  0.82792978  0.26307013    -0.02580
Br775      Br  0.02423075  0.84642800  0.23321458    -0.01130
Br776      Br  0.01050822  0.91271214  0.27102673    -0.01200
Br777      Br  0.52127686  0.73744426  0.31096768    -0.01160
Br778      Br  0.47037236  0.80062143  0.34000425    -0.01140
C779        C  0.03411113  0.68459582  0.26331960    -0.02270
C780        C  0.50053485  0.71132230  0.26331022     0.07410
C781        C  0.46635353  0.69707189  0.27570684    -0.02380
C782        C  0.46754281  0.66117227  0.28752994    -0.02380
C783        C  0.50430089  0.64438356  0.29386207     0.07550
C784        C  0.03785159  0.65574550  0.28074781    -0.02580
Br785      Br  0.08935190  0.63114390  0.28433409    -0.01130
Br786      Br  0.07026917  0.67567525  0.23770313    -0.01200
Br787      Br  0.41775001  0.63442572  0.29280711    -0.01160
Br788      Br  0.41769348  0.72598388  0.28069418    -0.01140
C789        C  0.03519816  0.68770080  0.44094173    -0.02270
C790        C  0.50428280  0.66047016  0.43717549     0.07410
C791        C  0.47094597  0.66235352  0.45177291    -0.02380
C792        C  0.47317952  0.68187769  0.47292508    -0.02380
C793        C  0.00409723  0.70914625  0.47736709     0.07550
C794        C  0.03441602  0.71291053  0.46036266    -0.02580
Br795      Br  0.07829616  0.74850033  0.46442131    -0.01130
Br796      Br  0.07638213  0.69422794  0.41817028    -0.01200
Br797      Br  0.43160907  0.67033411  0.49471405    -0.01160
Br798      Br  0.41932771  0.64461516  0.44176243    -0.01140
C799        C  0.47235124  0.82086931  0.44354555    -0.02270
C800        C  0.49809411  0.85322862  0.44265254     0.07410
C801        C  0.02636028  0.85812190  0.46019108    -0.02380
C802        C  0.02966487  0.83052422  0.47813482    -0.02380
C803        C  0.00248245  0.79867081  0.48004202     0.07550
C804        C  0.47276812  0.79529220  0.46264816    -0.02580
Br805      Br  0.42733619  0.76157631  0.46606793    -0.01130
Br806      Br  0.43717472  0.81020710  0.41805533    -0.01200
Br807      Br  0.07350816  0.83729989  0.49910036    -0.01160
Br808      Br  0.05945375  0.90436816  0.46050728    -0.01140
C809        C  0.18157262  0.52372603  0.44255232    -0.02270
C810        C  0.16003834  0.48991264  0.43589761     0.07410
C811        C  0.16743175  0.95486580  0.44816960    -0.02380
C812        C  0.18454798  0.95623877  0.47001732    -0.02380
C813        C  0.20643816  0.98942077  0.47683801     0.07550
C814        C  0.20603390  0.52285776  0.46234939    -0.02580
Br815      Br  0.23137892  0.57069299  0.47208503    -0.01130
Br816      Br  0.17967130  0.57138573  0.42462726    -0.01200
Br817      Br  0.17895675  0.91065728  0.48949615    -0.01160
Br818      Br  0.16634748  0.90399855  0.43380436    -0.01140
C819        C  0.29332133  0.97292851  0.46001234    -0.02270
C820        C  0.29396741  0.99884554  0.47919134     0.07410
C821        C  0.32320059  0.52882518  0.47909197    -0.02380
C822        C  0.35253021  0.52989141  0.46189822    -0.02380
C823        C  0.34849595  0.50727793  0.44195161     0.07550
C824        C  0.31727710  0.98020082  0.44064541    -0.02580
Br825      Br  0.30697992  0.95212284  0.41244621    -0.01130
Br826      Br  0.26884681  0.92212999  0.46122914    -0.01200
Br827      Br  0.40152455  0.55690568  0.46793590    -0.01160
Br828      Br  0.32477407  0.56971907  0.50193982    -0.01140
C829        C  0.16168508  0.50421890  0.52117454    -0.02270
C830        C  0.19974728  0.98474791  0.52055301     0.07410
C831        C  0.20859066  0.95922112  0.53933387    -0.02380
C832        C  0.18584872  0.96125130  0.55976589    -0.02380
C833        C  0.14966760  0.48207366  0.56001997     0.07550
C834        C  0.13573373  0.49862241  0.53968829    -0.02580
Br835      Br  0.07935544  0.50902843  0.53646657    -0.01130
Br836      Br  0.14300406  0.54225781  0.49913963    -0.01200
Br837      Br  0.20410765  0.93549271  0.58730603    -0.01160
Br838      Br  0.24616124  0.91666469  0.53656687    -0.01140
C839        C  0.31208147  0.01512611  0.56107474    -0.02270
C840        C  0.34824955  0.49425328  0.55996373     0.07410
C841        C  0.35753928  0.47319927  0.54014922    -0.02380
C842        C  0.32886733  0.46781915  0.52305898    -0.02380
C843        C  0.29324844  0.99066876  0.52279317     0.07550
C844        C  0.28597634  0.01570153  0.54195917    -0.02580
Br845      Br  0.24496672  0.05547587  0.54135446    -0.01130
Br846      Br  0.29876353  0.04368751  0.58859770    -0.01200
Br847      Br  0.33974752  0.42656846  0.50142728    -0.01160
Br848      Br  0.41183969  0.45701526  0.53460246    -0.01140
C849        C  0.03680530  0.64860403  0.54169756    -0.02270
C850        C  0.50663606  0.64923695  0.55845321     0.07410
C851        C  0.47826396  0.67984722  0.55778088    -0.02380
C852        C  0.47683029  0.70621853  0.53903687    -0.02380
C853        C  0.00650153  0.70513039  0.52152641     0.07550
C854        C  0.03692188  0.67602510  0.52355047    -0.02580
Br855      Br  0.08086217  0.67286295  0.50227571    -0.01130
Br856      Br  0.07874545  0.60990302  0.54325830    -0.01200
Br857      Br  0.42962136  0.73830753  0.53640425    -0.01160
Br858      Br  0.44299116  0.68837763  0.58355925    -0.01140
C859        C  0.46741557  0.84071768  0.55011581    -0.02270
C860        C  0.49958872  0.84014652  0.56565809     0.07410
C861        C  0.03063394  0.81284956  0.56177760    -0.02380
C862        C  0.03208641  0.79051654  0.54129515    -0.02380
C863        C  0.00181677  0.79436664  0.52429926     0.07550
C864        C  0.46997681  0.82091931  0.52895628    -0.02580
Br865      Br  0.42766810  0.83086975  0.50724983    -0.01130
Br866      Br  0.41717372  0.86466718  0.55828821    -0.01200
Br867      Br  0.07942759  0.75974457  0.53579991    -0.00520
Br868      Br  0.06894780  0.80189903  0.58572451    -0.01140
C869        C  0.06026153  0.75345098  0.19320139    -0.02270
C870        C  0.09930791  0.75385460  0.20109405     0.07410
C871        C  0.10707044  0.76074745  0.22438293    -0.02380
C872        C  0.07540942  0.76241656  0.24045686    -0.02380
C873        C  0.03467131  0.75872608  0.23295389     0.07550
C874        C  0.02897099  0.76169323  0.20829962    -0.02580
Br875      Br  0.98730889  0.79179169  0.19299301    -0.01130
Br876      Br  0.04968320  0.74447382  0.16088323    -0.01200
Br877      Br  0.09086835  0.76656575  0.27227362    -0.01160
Br878      Br  0.16178901  0.76387113  0.23426155    -0.01140
C879        C  0.39507048  0.78350591  0.22200499    -0.02270
C880        C  0.39417266  0.75718821  0.20357304     0.07410
C881        C  0.42217979  0.72669567  0.20263919    -0.02380
C882        C  0.45093478  0.72246187  0.21998033    -0.02380
C883        C  0.45806709  0.75318389  0.23655075     0.07550
C884        C  0.42668918  0.78257341  0.23817644    -0.02580
Br885      Br  0.41886089  0.81912528  0.26325219    -0.01130
Br886      Br  0.35093121  0.81990873  0.22559753    -0.01200
Br887      Br  0.47962722  0.67352257  0.21832987    -0.01160
Br888      Br  0.42685652  0.69436146  0.17514929    -0.01140
C889        C  0.28855753  0.59443758  0.04724604    -0.02270
C890        C  0.25808265  0.59502277  0.06396367     0.07410
C891        C  0.22578355  0.56896553  0.06117633    -0.02380
C892        C  0.22239297  0.54548263  0.04123159    -0.02380
C893        C  0.25088159  0.54843293  0.02322991     0.07550
C894        C  0.28316422  0.57461821  0.02634274    -0.02580
Br895      Br  0.32317896  0.58263607  0.00300159    -0.01130
Br896      Br  0.34067670  0.61571106  0.05297434    -0.01200
Br897      Br  0.17538916  0.51356621  0.03801549    -0.01160
Br898      Br  0.18739072  0.56246602  0.08561967    -0.01140
C899        C  0.27325954  0.96041961  0.04039996    -0.02270
C900        C  0.24535587  0.95860483  0.02190272     0.07410
C901        C  0.21703668  0.92761417  0.02240302    -0.02380
C902        C  0.21918033  0.89797087  0.03904498    -0.02380
C903        C  0.24460112  0.90180354  0.05798820     0.07550
C904        C  0.27063475  0.93395880  0.05901729    -0.02580
Br905      Br  0.30266055  0.94248257  0.08615261    -0.01130
Br906      Br  0.31972643  0.99334449  0.03974433    -0.01200
Br907      Br  0.18974615  0.85005900  0.03429396    -0.01160
Br908      Br  0.17222131  0.92526142  0.00181799    -0.01140
C909        C  0.27283391  0.54588631  0.96037488    -0.02270
C910        C  0.24585542  0.55048005  0.97916231     0.07410
C911        C  0.21739847  0.58161251  0.97766004    -0.02380
C912        C  0.21750099  0.60782132  0.95897751    -0.02380
C913        C  0.24266240  0.60136502  0.94015202     0.07550
C914        C  0.26877410  0.56905294  0.94044034    -0.02580
Br915      Br  0.29822137  0.55516500  0.91305406    -0.01130
Br916      Br  0.32046345  0.51425021  0.96220932    -0.01200
Br917      Br  0.18479701  0.65445000  0.95999541    -0.01160
Br918      Br  0.17561282  0.58885697  0.99994228    -0.01140
C919        C  0.22273312  0.93937258  0.94122892    -0.02270
C920        C  0.25261162  0.91029021  0.93951201     0.07410
C921        C  0.28426212  0.91088029  0.95530516    -0.02380
C922        C  0.28169436  0.93385184  0.97520977    -0.02380
C923        C  0.25001380  0.96121264  0.97825357     0.07550
C924        C  0.22093550  0.96432776  0.96053589    -0.02580
Br925      Br  0.17498911  0.99833811  0.96324356    -0.01130
Br926      Br  0.18704104  0.94895164  0.91577322    -0.01200
Br927      Br  0.32439510  0.92810373  0.99716193    -0.01160
Br928      Br  0.33368419  0.88373688  0.94905016    -0.01140
C929        C  0.03128097  0.67998889  0.73274530    -0.02270
C930        C  0.49843944  0.70711489  0.73469845     0.07410
C931        C  0.46349044  0.69607865  0.72195215    -0.02380
C932        C  0.46241092  0.66060484  0.70997241    -0.02380
C933        C  0.49811468  0.64374717  0.70206282     0.07550
C934        C  0.03332806  0.65438560  0.71375539    -0.02580
Br935      Br  0.08533652  0.63605776  0.70456331    -0.01130
Br936      Br  0.06832092  0.66648122  0.75697568    -0.01200
Br937      Br  0.41267229  0.63242091  0.71039119    -0.01160
Br938      Br  0.41595944  0.72696213  0.71834380    -0.01140
C939        C  0.49450207  0.81654540  0.69541041    -0.02270
C940        C  0.49870982  0.85325142  0.70552544     0.07410
C941        C  0.00737708  0.85587045  0.72899996    -0.02380
C942        C  0.00707392  0.82198025  0.74311801    -0.02380
C943        C  0.50197329  0.78333791  0.73338201     0.07550
C944        C  0.50094011  0.78221147  0.70835328    -0.02580
Br945      Br  0.51812340  0.73952966  0.68863637    -0.01130
Br946      Br  0.48274068  0.81363898  0.66269056    -0.01200
Br947      Br  0.00770639  0.83209312  0.77583130    -0.01160
Br948      Br  0.01677410  0.90712208  0.74189505    -0.01140
C949        C  0.05999986  0.76394286  0.80559838    -0.02270
C950        C  0.09948502  0.76481469  0.79836907     0.07410
C951        C  0.10760360  0.75995196  0.77488988    -0.02380
C952        C  0.07594219  0.75609274  0.75889311    -0.02380
C953        C  0.03612603  0.74752244  0.76676299     0.07550
C954        C  0.03203173  0.74582436  0.79138703    -0.02580
Br955      Br  0.01990219  0.69769560  0.80681069    -0.01130
Br956      Br  0.04646237  0.77530180  0.83716906    -0.01200
Br957      Br  0.09085066  0.75827741  0.72696328    -0.01160
Br958      Br  0.16228238  0.75683925  0.76500966    -0.01140
C959        C  0.44657789  0.71164669  0.77777645    -0.02270
C960        C  0.45782476  0.74553210  0.76445416     0.07410
C961        C  0.42869902  0.77712328  0.76524675    -0.02380
C962        C  0.39943949  0.77845447  0.78286335    -0.02380
C963        C  0.39777152  0.74910375  0.79983476     0.07550
C964        C  0.42082368  0.71514653  0.79675845    -0.02580
Br965      Br  0.41934671  0.67276566  0.81910968    -0.01130
Br966      Br  0.45994862  0.65749401  0.77023677    -0.01200
Br967      Br  0.35795323  0.81834135  0.78201722    -0.01160
Br968      Br  0.41862592  0.81479286  0.74068390    -0.01140
C969        C  0.32292736  0.97864121  0.73555989    -0.02270
C970        C  0.28851819  0.50468377  0.73564731     0.07410
C971        C  0.28698846  0.53277827  0.71691062    -0.02380
C972        C  0.31608649  0.53287372  0.69940966    -0.02380
C973        C  0.35043682  0.50982572  0.70156610     0.07550
C974        C  0.35523130  0.98608145  0.72093113    -0.02580
Br975      Br  0.40710200  0.96359544  0.72762953    -0.01130
Br976      Br  0.32741851  0.92633612  0.74877688    -0.01200
Br977      Br  0.30827739  0.56435279  0.67207694    -0.01160
Br978      Br  0.24762885  0.57444677  0.71468310    -0.01140
C979        C  0.14623539  0.52078216  0.72354270    -0.02270
C980        C  0.15150064  0.50078785  0.70290951     0.07410
C981        C  0.18662389  0.48007775  0.69902464    -0.02380
C982        C  0.21489651  0.47623410  0.71663716    -0.02380
C983        C  0.21385717  0.50111050  0.73683019     0.07550
C984        C  0.17834057  0.52544996  0.73893484    -0.02580
Br985      Br  0.17036133  0.57072088  0.75833127    -0.01130
Br986      Br  0.09367805  0.54088050  0.73076260    -0.01200
Br987      Br  0.25093216  0.93258168  0.71243912    -0.01160
Br988      Br  0.19679131  0.45783247  0.66894514    -0.01140
C989        C  0.22808166  0.53740570  0.79162212    -0.02270
C990        C  0.25159708  0.53850875  0.77061118     0.07410
C991        C  0.27601588  0.57315563  0.76805921    -0.02380
C992        C  0.26739178  0.60705353  0.78074809    -0.02380
C993        C  0.24529012  0.60463528  0.80095731     0.07550
C994        C  0.22812577  0.56901921  0.80720809    -0.02580
Br995      Br  0.20508586  0.56344809  0.83760348    -0.01130
Br996      Br  0.19038647  0.49686010  0.79960594    -0.01200
Br997      Br  0.28750172  0.65735894  0.77082781    -0.01160
Br998      Br  0.32880810  0.57621501  0.75443008    -0.01140
C999        C  0.28366902  0.96340792  0.78762786    -0.02270
C1000       C  0.25481690  0.96456922  0.76910445     0.07410
C1001       C  0.22766911  0.93167550  0.76811730    -0.02380
C1002       C  0.23429675  0.89855420  0.78185189    -0.02380
C1003       C  0.25891602  0.90067656  0.80105088     0.07550
C1004       C  0.28355036  0.93313252  0.80406099    -0.02580
Br1005     Br  0.31679651  0.93696235  0.83121165    -0.01130
Br1006     Br  0.32655450  0.00053690  0.79108463    -0.01200
Br1007     Br  0.20897024  0.84942712  0.77447690    -0.01160
Br1008     Br  0.17429145  0.93084800  0.75511132    -0.01140
C1009       C  0.11467414  0.72245886  0.03355587    -0.02270
C1010       C  0.10363563  0.73755573  0.05525784     0.07410
C1011       C  0.06285754  0.74020298  0.06046768    -0.02380
C1012       C  0.03465790  0.73007270  0.04369984    -0.02380
C1013       C  0.04593848  0.73054114  0.02033291     0.07550
C1014       C  0.08543360  0.71778776  0.01628088    -0.02580
Br1015     Br  0.09761255  0.68908590  0.98876801    -0.01130
Br1016     Br  0.16939401  0.70951534  0.02721840    -0.01200
Br1017     Br  0.00053298  0.68810178  0.05346706    -0.01160
Br1018     Br  0.04525975  0.74986228  0.09144027    -0.01140
C1019       C  0.42097139  0.72185825  0.02554406    -0.02270
C1020       C  0.45451947  0.74693607  0.02358878     0.07410
C1021       C  0.45932706  0.77648269  0.04060669    -0.02380
C1022       C  0.43391038  0.77769123  0.05990718    -0.02380
C1023       C  0.39956934  0.75424618  0.06047843     0.07550
C1024       C  0.39178595  0.72906353  0.04216166    -0.02580
Br1025     Br  0.33828880  0.71091871  0.03718901    -0.01130
Br1026     Br  0.41468162  0.67544388  0.00719358    -0.01200
Br1027     Br  0.44625419  0.81170519  0.08532863    -0.01160
Br1028     Br  0.49784136  0.81776288  0.03703731    -0.01140
C1029       C  0.03060970  0.76199754  0.95699279    -0.02270
C1030       C  0.04268889  0.76614047  0.98009780     0.07410
C1031       C  0.08063322  0.78364272  0.98290434    -0.02380
C1032       C  0.10910175  0.78136092  0.96495670    -0.02380
C1033       C  0.09922666  0.76239344  0.94416621     0.07550
C1034       C  0.05923831  0.75242444  0.94035560    -0.02580
Br1035     Br  0.04149870  0.73439599  0.91076342    -0.01130
Br1036     Br  0.99458386  0.80138316  0.94546626    -0.01200
Br1037     Br  0.16194853  0.80151309  0.96945858    -0.01160
Br1038     Br  0.09256355  0.81314238  0.01016401    -0.01140
C1039       C  0.41989995  0.77444432  0.97940889    -0.02270
C1040       C  0.45250389  0.74796585  0.98045769     0.07410
C1041       C  0.45458906  0.71759638  0.96374787    -0.02380
C1042       C  0.42714028  0.71680106  0.94533655    -0.02380
C1043       C  0.39428578  0.74267911  0.94526055     0.07550
C1044       C  0.38913306  0.76846677  0.96370371    -0.02580
Br1045     Br  0.33725323  0.79011236  0.97009288    -0.01130
Br1046     Br  0.41746242  0.82133151  0.99770540    -0.01200
Br1047     Br  0.43487584  0.68026253  0.92050721    -0.01160
Br1048     Br  0.49318510  0.67569035  0.96647760    -0.01140
C1049       C  0.29127532  0.53475686  0.28238214    -0.02270
C1050       C  0.28749982  0.50359629  0.26561586     0.07410
C1051       C  0.32114683  0.97712962  0.26399745    -0.02380
C1052       C  0.35199986  0.97814474  0.28062231    -0.02380
C1053       C  0.35147245  0.50581270  0.29843342     0.07550
C1054       C  0.32117944  0.53401194  0.29925418    -0.02580
Br1055     Br  0.31482452  0.56644611  0.32656461    -0.01130
Br1056     Br  0.25435845  0.57797334  0.28566569    -0.01200
Br1057     Br  0.39687288  0.94255765  0.27843263    -0.01160
Br1058     Br  0.33398171  0.94660432  0.23678918    -0.01140
C1059       C  0.17159299  0.48735797  0.25885758    -0.02270
C1060       C  0.21153447  0.49409192  0.26726183     0.07410
C1061       C  0.21520686  0.99076530  0.29229360    -0.02380
C1062       C  0.18200929  0.99632645  0.30650643    -0.02380
C1063       C  0.14388683  0.49468702  0.29735781     0.07550
C1064       C  0.13854187  0.48822079  0.27392857    -0.02580
Br1065     Br  0.08463616  0.48551044  0.26244082    -0.01130
Br1066     Br  0.15754667  0.47897227  0.22719251    -0.01200
Br1067     Br  0.18840049  0.00402934  0.33947069    -0.01160
Br1068     Br  0.25874221  0.96753123  0.31007654    -0.01140
C1069       C  0.28430336  0.55481371  0.22416318    -0.02270
C1070       C  0.24926203  0.54381189  0.23721025     0.07410
C1071       C  0.21707746  0.57244185  0.23611146    -0.02380
C1072       C  0.21921149  0.60502241  0.22081744    -0.02380
C1073       C  0.25040676  0.60827170  0.20485283     0.07550
C1074       C  0.28209644  0.58177156  0.20614626    -0.02580
Br1075     Br  0.31914210  0.57504931  0.18080303    -0.01130
Br1076     Br  0.33933777  0.54429070  0.23169127    -0.01200
Br1077     Br  0.17930535  0.64618337  0.22158500    -0.01160
Br1078     Br  0.17092737  0.57403144  0.25590343    -0.01140
C1079       C  0.24835572  0.94312985  0.19073904    -0.02270
C1080       C  0.24454060  0.90467890  0.19819943     0.07410
C1081       C  0.24254258  0.89656006  0.22157773    -0.02380
C1082       C  0.24548571  0.92697230  0.23794157    -0.02380
C1083       C  0.24754278  0.96780735  0.23125215     0.07550
C1084       C  0.24476355  0.97434329  0.20644976    -0.02580
Br1085     Br  0.22073247  0.01895525  0.19099078    -0.01130
Br1086     Br  0.25492304  0.95262490  0.15799481    -0.01200
Br1087     Br  0.24845064  0.90841732  0.26889428    -0.01160
Br1088     Br  0.23796627  0.84223388  0.23078823    -0.01140
C1089       C  0.74854152  0.50209894  0.25021352    -0.02910
C1090       C  0.97862645  0.24727283  0.00154767     0.00150
C1091       C  0.52015977  0.24776501  0.00068971     0.00150
C1092       C  0.75208147  0.00223606  0.75319265    -0.02910
C1093       C  0.49861676  0.24564127  0.74973582    -0.02910
C1094       C  0.74767639  0.48441021  0.00048917     0.00150
C1095       C  0.74783742  0.02538775  0.00090671     0.00150
C1096       C  0.75003081  0.37839735  0.92212208     0.42040
N1097       N  0.76697648  0.33498518  0.89719667     0.00930
C1098       C  0.64441644  0.22559750  0.82699144    -0.06950
H1099       H  0.63497891  0.19239692  0.91748830     0.06420
C1100       C  0.77967855  0.14729376  0.91109766    -0.07300
Co1101     Co  0.69646544  0.30524781  0.87164515     0.74180
N1102       N  0.66438429  0.23501511  0.89596110    -0.26480
Co1103     Co  0.69528148  0.20386135  0.87030653     0.74070
C1104       C  0.74412523  0.13016912  0.92105505     0.42140
N1105       N  0.82890783  0.23242516  0.89704683     0.00550
N1106       N  0.72691792  0.17123419  0.89488447     0.00650
N1107       N  0.64511023  0.29161485  0.82874519    -0.47320
H1108       H  0.68335531  0.36705096  0.91559147     0.06410
N1109       N  0.66513836  0.27365597  0.89641099     0.00940
N1110       N  0.72776303  0.17480184  0.84488361     0.00680
C1111       C  0.74559071  0.13780756  0.81706004     0.42280
N1112       N  0.82907897  0.27101851  0.89777969    -0.25930
C1113       C  0.71823931  0.35791496  0.82984053    -0.06850
N1114       N  0.78135629  0.36088229  0.91180151    -0.47040
N1115       N  0.71359796  0.15222555  0.82833449    -0.47260
C1116       C  0.75513208  0.37083413  0.81911210     0.42050
N1117       N  0.66597992  0.27562995  0.84574711     0.00920
N1118       N  0.83161571  0.27369824  0.84820962    -0.25950
N1119       N  0.72779874  0.33482720  0.89690595    -0.26450
N1120       N  0.82954842  0.23542237  0.84667499     0.00560
H1121       H  0.86536350  0.31711453  0.83005295     0.06450
H1122       H  0.81185464  0.14576657  0.82524701     0.06490
N1123       N  0.66573080  0.23706423  0.84524935    -0.26500
N1124       N  0.76615699  0.17178418  0.89495216    -0.26110
N1125       N  0.76921656  0.33412341  0.84761185     0.00930
C1126       C  0.62881343  0.25825158  0.92534562     0.42330
C1127       C  0.85236316  0.28237383  0.91511951    -0.07360
N1128       N  0.76699049  0.17509216  0.84535802    -0.26110
H1129       H  0.81062283  0.14126595  0.91476198     0.06470
N1130       N  0.64414892  0.28865677  0.91357231    -0.47330
H1131       H  0.85948194  0.31227548  0.91939061     0.06460
C1132       C  0.86944360  0.25207161  0.81950625     0.42160
C1133       C  0.71432678  0.36033950  0.91254887    -0.06860
Co1134     Co  0.79974204  0.30397931  0.87287923     0.73820
N1135       N  0.85116938  0.21622403  0.91332782    -0.47050
C1136       C  0.63147139  0.26178375  0.81581078     0.42430
N1137       N  0.78549411  0.35516265  0.83108112    -0.47040
Co1138     Co  0.79840559  0.20322703  0.87100303     0.73890
C1139       C  0.78090943  0.15260670  0.82840394    -0.07360
C1140       C  0.64168872  0.22254801  0.91352209    -0.06930
N1141       N  0.72997444  0.33505491  0.84723924    -0.26450
N1142       N  0.71240077  0.14641695  0.91024655    -0.47220
H1143       H  0.63831089  0.19566210  0.82224573     0.06430
C1144       C  0.85678331  0.28691199  0.83218552    -0.07340
Cl1145     Cl  0.74743108  0.25402966  0.87161438    -0.50340
C1146       C  0.86677605  0.24602742  0.92547511     0.42190
H1147       H  0.68780164  0.36516322  0.82554888     0.06400
N1148       N  0.85127480  0.22138797  0.82963518    -0.47050
C1149       C  0.63183941  0.25144162  0.18427318     0.42040
N1150       N  0.66414278  0.26738174  0.15400608     0.00930
C1151       C  0.79128520  0.14394624  0.09460353    -0.06950
H1152       H  0.81598481  0.15699206  0.18204566     0.06420
C1153       C  0.84918416  0.29429694  0.17277888    -0.07300
Co1154     Co  0.70029216  0.19783876  0.13069292     0.74180
N1155       N  0.77139617  0.17645518  0.15812039    -0.26480
Co1156     Co  0.80210762  0.20616899  0.13262960     0.74070
C1157       C  0.86323527  0.25989072  0.18555104     0.42140
N1158       N  0.76044923  0.33582243  0.15356315     0.00550
N1159       N  0.82751943  0.24131934  0.15720813     0.00650
N1160       N  0.72455125  0.14118301  0.09188732    -0.47320
H1161       H  0.64323839  0.18587840  0.17823371     0.06410
N1162       N  0.73264395  0.17163406  0.15704222     0.00940
N1163       N  0.83208648  0.23798015  0.10695294     0.00680
C1164       C  0.87120877  0.25580510  0.07979658     0.42280
N1165       N  0.72126954  0.33344523  0.15341862    -0.25930
C1166       C  0.65024096  0.20872845  0.08673955    -0.06850
N1167       N  0.64287076  0.28198110  0.17111148    -0.47040
N1168       N  0.85724450  0.22429227  0.09133960    -0.47260
C1169       C  0.63341856  0.24126552  0.07392187     0.42050
N1170       N  0.73587595  0.16787757  0.10700136     0.00920
N1171       N  0.72261246  0.33115876  0.10356839    -0.25950
N1172       N  0.66688376  0.22890006  0.15477332    -0.26450
N1173       N  0.76177859  0.33344394  0.10365377     0.00560
H1174       H  0.67721739  0.36070756  0.08398206     0.06450
H1175       H  0.85596933  0.32082198  0.08500634     0.06490
N1176       N  0.77480945  0.17045797  0.10852642    -0.26500
N1177       N  0.82682265  0.27969263  0.15574274    -0.26110
N1178       N  0.66514960  0.26364134  0.10320685     0.00930
C1179       C  0.75054410  0.13919640  0.18693162     0.42330
C1180       C  0.70710568  0.35619089  0.17041141    -0.07360
N1181       N  0.82882201  0.27644962  0.10608851    -0.26110
H1182       H  0.85528623  0.32494623  0.17551618     0.06470
N1183       N  0.71894801  0.14896303  0.17372067    -0.47330
H1184       H  0.67608674  0.36117011  0.17436667     0.06460
C1185       C  0.74352325  0.37210924  0.07659356     0.42160
C1186       C  0.64676110  0.21607940  0.17318048    -0.06860
Co1187     Co  0.69221307  0.29948603  0.12844305     0.73820
N1188       N  0.77432051  0.35920951  0.16971501    -0.47050
C1189       C  0.75790670  0.12455291  0.08307072     0.42430
N1190       N  0.64303082  0.27453209  0.08531994    -0.47040
Co1191     Co  0.79493349  0.30691100  0.12963080     0.73890
C1192       C  0.85214205  0.29032841  0.08937849    -0.07360
C1193       C  0.78519035  0.15813667  0.17678688    -0.06930
N1194       N  0.66925845  0.22522891  0.10439898    -0.26450
N1195       N  0.84833856  0.22843907  0.17483468    -0.47220
H1196       H  0.82262690  0.13744799  0.09463246     0.06430
C1197       C  0.70834739  0.35484619  0.08719422    -0.07340
Cl1198     Cl  0.74737035  0.25258768  0.13014117    -0.50340
C1199       C  0.74254200  0.37264797  0.18127898     0.42190
H1200       H  0.64789153  0.17768729  0.08352896     0.06400
N1201       N  0.77552946  0.35764079  0.08778207    -0.47050
C1202       C  0.62024799  0.00163339  0.68524029     0.42040
N1203       N  0.58257089  0.48249463  0.65797761     0.00930
C1204       C  0.96839056  0.09910048  0.58548261    -0.06950
H1205       H  0.93273811  0.10958723  0.66959755     0.06420
C1206       C  0.89488541  0.46978899  0.67309715    -0.07300
Co1207     Co  0.55205359  0.04908639  0.62981051     0.74180
N1208       N  0.97916655  0.08056941  0.65197522    -0.26480
Co1209     Co  0.94890427  0.04755989  0.62803514     0.74070
C1210       C  0.87953694  0.00625415  0.68258686     0.42140
N1211       N  0.98213894  0.42067690  0.66029618     0.00550
N1212       N  0.91776769  0.01926463  0.65419627     0.00650
N1213       N  0.53527698  0.10235513  0.58806166    -0.47320
H1214       H  0.61222407  0.06632307  0.67523206     0.06410
N1215       N  0.51814953  0.08066800  0.65355675     0.00940
N1216       N  0.91898237  0.01294129  0.60440877     0.00680
C1217       C  0.87699171  0.99394457  0.57924128     0.42280
N1218       N  0.52129988  0.42156763  0.66042464    -0.25930
C1219       C  0.60955934  0.02473211  0.58963507    -0.06850
N1220       N  0.60526461  0.46964642  0.67496484    -0.47040
N1221       N  0.89402815  0.02585322  0.58845227    -0.47260
C1222       C  0.62595342  0.98772115  0.58110195     0.42050
N1223       N  0.52055738  0.07741922  0.60330013     0.00920
N1224       N  0.52295584  0.41347938  0.61041540    -0.25950
N1225       N  0.58226576  0.02095741  0.65627846    -0.26450
N1226       N  0.98380617  0.41219569  0.61023813     0.00560
H1227       H  0.56802009  0.38327534  0.59104693     0.06450
H1228       H  0.88586745  0.42925436  0.58918953     0.06490
N1229       N  0.98138199  0.07572215  0.60243924    -0.26500
N1230       N  0.91842789  0.48077482  0.65580760    -0.26110
N1231       N  0.58502319  0.47591057  0.60835177     0.00930
C1232       C  0.99816345  0.11718180  0.68156949     0.42330
C1233       C  0.53460174  0.40206152  0.67887140    -0.07360
N1234       N  0.91926042  0.47435073  0.60632948    -0.26110
H1235       H  0.88877493  0.43994784  0.67810039     0.06470
N1236       N  0.53075768  0.10216601  0.67100776    -0.47330
H1237       H  0.56546891  0.39647018  0.68296531     0.06460
C1238       C  0.00162838  0.36929460  0.58495181     0.42160
C1239       C  0.60539095  0.03576185  0.67283789    -0.06860
Co1240     Co  0.55339643  0.44790528  0.63419819     0.73820
N1241       N  0.96761551  0.40033934  0.67780027    -0.47050
C1242       C  0.00417896  0.11736318  0.57609659     0.42430
N1243       N  0.60908382  0.45874764  0.59336803    -0.47040
Co1244     Co  0.95039818  0.44632859  0.63307388     0.73890
C1245       C  0.89371796  0.45970254  0.59091932    -0.07360
C1246       C  0.96401704  0.10365759  0.66817131    -0.06930
N1247       N  0.58470860  0.01450827  0.60658859    -0.26450
N1248       N  0.89464488  0.03578915  0.66992194    -0.47220
H1249       H  0.93751291  0.10470857  0.58144772     0.06430
C1250       C  0.53691701  0.38817717  0.59471824    -0.07340
Cl1251     Cl  0.00121749  0.99771081  0.63100887    -0.50340
C1252       C  0.99905782  0.38836798  0.69063201     0.42190
H1253       H  0.61620790  0.05431399  0.58435271     0.06400
N1254       N  0.97000552  0.38621612  0.59543115    -0.47050
C1255       C  0.99021824  0.38144029  0.31880511     0.42040
N1256       N  0.51015598  0.41894368  0.34561566     0.00930
C1257       C  0.89617480  0.04356594  0.41212584    -0.06950
H1258       H  0.89993228  0.07026863  0.32151873     0.06420
C1259       C  0.54080695  0.10104293  0.32684480    -0.07300
Co1260     Co  0.94366125  0.45548625  0.37143104     0.74180
N1261       N  0.92058478  0.02647851  0.34510350    -0.26480
Co1262     Co  0.95285464  0.05703324  0.36961429     0.74070
C1263       C  0.00639302  0.11683313  0.31418064     0.42140
N1264       N  0.58004887  0.01390875  0.34362997     0.00550
N1265       N  0.98679876  0.08341210  0.34382505     0.00650
N1266       N  0.89325707  0.47750509  0.41250454    -0.47320
H1267       H  0.92435754  0.39378752  0.32698871     0.06410
N1268       N  0.91562307  0.48825967  0.34612790     0.00940
N1269       N  0.98761570  0.08669469  0.39382842     0.00680
C1270       C  0.00665311  0.12950230  0.41879588     0.42280
N1271       N  0.57588783  0.47565719  0.34356242    -0.25930
C1272       C  0.96019986  0.40097084  0.41376319    -0.06850
N1273       N  0.52289021  0.39486899  0.32945774    -0.47040
N1274       N  0.97474267  0.11402805  0.40809131    -0.47260
C1275       C  0.99559426  0.38217663  0.42354265     0.42050
N1276       N  0.91706900  0.49037158  0.39613494     0.00920
N1277       N  0.58005671  0.47571448  0.39332566    -0.25950
N1278       N  0.97111815  0.42156598  0.34646208    -0.26450
N1279       N  0.58475650  0.01385974  0.39364745     0.00560
H1280       H  0.60635920  0.42827508  0.41065601     0.06450
H1281       H  0.57264958  0.11222561  0.41319821     0.06490
N1282       N  0.91956630  0.02895263  0.39542829    -0.26500
N1283       N  0.52569069  0.08057923  0.34433608    -0.26110
N1284       N  0.51294676  0.41937249  0.39554265     0.00930
C1285       C  0.88295937  0.00590817  0.31628342     0.42330
C1286       C  0.59418843  0.46129470  0.32494255    -0.07360
N1287       N  0.52668720  0.08292176  0.39415429    -0.26110
H1288       H  0.57223371  0.10430053  0.32443492     0.06470
N1289       N  0.89283752  0.47474391  0.32938084    -0.47330
H1290       H  0.59687882  0.43071599  0.32048011     0.06460
C1291       C  0.62788661  0.99159249  0.41802486     0.42160
C1292       C  0.95564173  0.39857558  0.33011551    -0.06860
Co1293     Co  0.54529805  0.44696949  0.36956929     0.73820
N1294       N  0.60065106  0.02686562  0.32586342    -0.47050
C1295       C  0.87888123  0.00921839  0.42342029     0.42430
N1296       N  0.52707583  0.39503158  0.41131785    -0.47040
Co1297     Co  0.55511444  0.04827406  0.36927250     0.73890
C1298       C  0.54140215  0.10810669  0.40971776    -0.07360
C1299       C  0.90165704  0.04003701  0.32657819    -0.06930
N1300       N  0.97392035  0.42304436  0.39642461    -0.26450
N1301       N  0.97420064  0.10511937  0.32640955    -0.47220
H1302       H  0.89059661  0.07422477  0.41525962     0.06430
C1303       C  0.60467443  0.45933098  0.40840926    -0.07340
Cl1304     Cl  0.99927412  0.00200243  0.37026297    -0.50340
C1305       C  0.60987909  0.99535247  0.31302219     0.42190
H1306       H  0.92926831  0.39743374  0.41833936     0.06400
N1307       N  0.61300706  0.02460888  0.40818480    -0.47050
C1308       C  0.50332537  0.27240580  0.50138600     0.00150
C1309       C  0.50483830  0.23136387  0.50015767     0.00150
C1310       C  0.76874986  0.49225495  0.50075478     0.00150
C1311       C  0.72725774  0.48911343  0.49975790     0.00150
C1312       C  0.49901190  0.25300100  0.25068212    -0.02910
C1313       C  0.50366022  0.35830877  0.27935337    -0.02270
C1314       C  0.99147368  0.35001698  0.30170371     0.07410
C1315       C  0.98741756  0.31137860  0.30879756    -0.02380
C1316       C  0.99803031  0.28071013  0.29392249    -0.02380
C1317       C  0.00192366  0.28734631  0.26937840     0.07550
C1318       C  0.50837976  0.32795466  0.26306705    -0.02580
Br1319     Br  0.52432208  0.34644994  0.23322793    -0.01130
Br1320     Br  0.51032089  0.41275045  0.27099379    -0.01200
Br1321     Br  0.02119696  0.23748516  0.31098011    -0.01160
Br1322     Br  0.97032243  0.30067481  0.34000352    -0.01140
C1323       C  0.53431965  0.18472473  0.26336769    -0.02270
C1324       C  0.00061615  0.21134265  0.26330194     0.07410
C1325       C  0.96644801  0.19698254  0.27566351    -0.02380
C1326       C  0.96771756  0.16105631  0.28745879    -0.02380
C1327       C  0.00451297  0.14440659  0.29385530     0.07550
C1328       C  0.53813819  0.15598736  0.28084352    -0.02580
Br1329     Br  0.58992902  0.13212382  0.28468775    -0.01130
Br1330     Br  0.57044392  0.17567572  0.23775334    -0.01200
Br1331     Br  0.91800627  0.13410425  0.29261474    -0.01160
Br1332     Br  0.91770224  0.22575709  0.28063622    -0.01140
C1333       C  0.53534882  0.18768406  0.44094476    -0.02270
C1334       C  0.00445813  0.16045648  0.43716162     0.07410
C1335       C  0.97110132  0.16233940  0.45174549    -0.02380
C1336       C  0.97331036  0.18185050  0.47290213    -0.02380
C1337       C  0.50418796  0.20913461  0.47735415     0.07550
C1338       C  0.53452488  0.21290762  0.46036081    -0.02580
Br1339     Br  0.57836910  0.24853511  0.46443104    -0.01130
Br1340     Br  0.57658494  0.19419091  0.41820370    -0.01200
Br1341     Br  0.93174047  0.17025589  0.49468216    -0.01160
Br1342     Br  0.91948252  0.14464236  0.44170963    -0.01140
C1343       C  0.97234264  0.32084559  0.44353602    -0.02270
C1344       C  0.99806477  0.35322140  0.44264037     0.07410
C1345       C  0.52630587  0.35813408  0.46017970    -0.02380
C1346       C  0.52963787  0.33053617  0.47812185    -0.02380
C1347       C  0.50248407  0.29865972  0.48002904     0.07550
C1348       C  0.97278595  0.29526422  0.46263720    -0.02580
Br1349     Br  0.92738356  0.26151143  0.46606143    -0.01130
Br1350     Br  0.93715162  0.31017321  0.41805413    -0.01200
Br1351     Br  0.57347426  0.33734856  0.49908793    -0.01160
Br1352     Br  0.55934807  0.40441532  0.46050136    -0.01140
C1353       C  0.68167712  0.02371977  0.44252921    -0.02270
C1354       C  0.66014633  0.98989924  0.43588306     0.07410
C1355       C  0.66732249  0.45486058  0.44817995    -0.02380
C1356       C  0.68445296  0.45621582  0.47002447    -0.02380
C1357       C  0.70634938  0.48939091  0.47684911     0.07550
C1358       C  0.70612813  0.02287189  0.46233061    -0.02580
Br1359     Br  0.73147804  0.07071552  0.47204906    -0.01130
Br1360     Br  0.67979116  0.07135866  0.42458412    -0.01200
Br1361     Br  0.67886431  0.41062438  0.48949644    -0.01160
Br1362     Br  0.66622311  0.40400087  0.43380624    -0.01140
C1363       C  0.79322214  0.47288832  0.46002011    -0.02270
C1364       C  0.79387450  0.49880352  0.47919990     0.07410
C1365       C  0.82329270  0.02887562  0.47908800    -0.02380
C1366       C  0.85262744  0.02994672  0.46189610    -0.02380
C1367       C  0.84860667  0.00732767  0.44195026     0.07550
C1368       C  0.81717326  0.48016243  0.44065211    -0.02580
Br1369     Br  0.80687013  0.45209115  0.41245141    -0.01130
Br1370     Br  0.76874729  0.42208995  0.46123626    -0.01200
Br1371     Br  0.90160825  0.05698393  0.46793444    -0.01160
Br1372     Br  0.82485232  0.06977021  0.50193575    -0.01140
C1373       C  0.66177461  0.00428185  0.52116397    -0.02270
C1374       C  0.69966572  0.48469991  0.52056308     0.07410
C1375       C  0.70852597  0.45918231  0.53934511    -0.02380
C1376       C  0.68580484  0.46122652  0.55978328    -0.02380
C1377       C  0.64970780  0.98210308  0.55999972     0.07550
C1378       C  0.63580250  0.99867693  0.53966794    -0.02580
Br1379     Br  0.57943188  0.00910315  0.53642822    -0.01130
Br1380     Br  0.64313790  0.04235329  0.49913640    -0.01200
Br1381     Br  0.70409192  0.43549156  0.58732479    -0.01160
Br1382     Br  0.74608379  0.41661633  0.53657176    -0.01140
C1383       C  0.81202451  0.51509096  0.56107690    -0.02270
C1384       C  0.84830991  0.99428465  0.55996860     0.07410
C1385       C  0.85761045  0.97323777  0.54015330    -0.02380
C1386       C  0.82894757  0.96786412  0.52305758    -0.02380
C1387       C  0.79316859  0.49062316  0.52280083     0.07550
C1388       C  0.78590570  0.51565812  0.54196711    -0.02580
Br1389     Br  0.74488814  0.55542475  0.54136926    -0.01130
Br1390     Br  0.79872165  0.54365790  0.58860024    -0.01200
Br1391     Br  0.83983592  0.92661626  0.50142550    -0.01160
Br1392     Br  0.91191387  0.95705618  0.53461370    -0.01140
C1393       C  0.53686528  0.14862501  0.54170496    -0.02270
C1394       C  0.00668828  0.14924629  0.55844960     0.07410
C1395       C  0.97830112  0.17984266  0.55776331    -0.02380
C1396       C  0.97687285  0.20620543  0.53901518    -0.02380
C1397       C  0.50654983  0.20512660  0.52151599     0.07550
C1398       C  0.53698386  0.17603843  0.52355355    -0.02580
Br1399     Br  0.58094218  0.17288827  0.50229013    -0.01130
Br1400     Br  0.57883552  0.10995804  0.54328747    -0.01200
Br1401     Br  0.92964453  0.23826055  0.53635745    -0.01160
Br1402     Br  0.94300176  0.18837387  0.58352941    -0.01140
C1403       C  0.96741179  0.34069532  0.55010556    -0.02270
C1404       C  0.99958324  0.34013734  0.56564958     0.07410
C1405       C  0.53062961  0.31285289  0.56176796    -0.02380
C1406       C  0.53209452  0.29052381  0.54128401    -0.02380
C1407       C  0.50182268  0.29435740  0.52428828     0.07550
C1408       C  0.96998294  0.32089678  0.52894561    -0.02580
Br1409     Br  0.92767245  0.33082999  0.50723744    -0.01130
Br1410     Br  0.91716093  0.36462779  0.55827627    -0.01200
Br1411     Br  0.57945607  0.25978500  0.53578503    -0.00520
Br1412     Br  0.56894466  0.30191060  0.58571548    -0.01140
C1413       C  0.56037351  0.25348101  0.19321896    -0.02270
C1414       C  0.59941537  0.25384544  0.20112110     0.07410
C1415       C  0.60716687  0.26073383  0.22441261    -0.02380
C1416       C  0.57549512  0.26244049  0.24047853    -0.02380
C1417       C  0.53476421  0.25875538  0.23296642     0.07550
C1418       C  0.52907781  0.26173017  0.20831215    -0.02580
Br1419     Br  0.48740860  0.29181957  0.19300494    -0.01130
Br1420     Br  0.54980890  0.24452817  0.16089698    -0.01200
Br1421     Br  0.59091808  0.26665423  0.27230006    -0.01160
Br1422     Br  0.66187758  0.26377934  0.23430967    -0.01140
C1423       C  0.89508873  0.28342866  0.22200016    -0.02270
C1424       C  0.89422893  0.25712143  0.20356236     0.07410
C1425       C  0.92225813  0.22664783  0.20262957    -0.02380
C1426       C  0.95102066  0.22244245  0.21996883    -0.02380
C1427       C  0.95810628  0.25316211  0.23654696     0.07550
C1428       C  0.92669116  0.28250806  0.23818099    -0.02580
Br1429     Br  0.91878665  0.31898607  0.26328573    -0.01130
Br1430     Br  0.85091512  0.31979206  0.22559006    -0.01200
Br1431     Br  0.97981265  0.17356054  0.21830085    -0.01160
Br1432     Br  0.92694446  0.19430112  0.17514537    -0.01140
C1433       C  0.78854305  0.09443690  0.04721637    -0.02270
C1434       C  0.75808121  0.09499915  0.06394222     0.07410
C1435       C  0.72577554  0.06895166  0.06115051    -0.02380
C1436       C  0.72236991  0.04549359  0.04119733    -0.02380
C1437       C  0.75085501  0.04845308  0.02319446     0.07550
C1438       C  0.78313686  0.07463898  0.02630763    -0.02580
Br1439     Br  0.82313552  0.08268533  0.00296004    -0.01130
Br1440     Br  0.84066394  0.11571251  0.05293754    -0.01200
Br1441     Br  0.67535260  0.01359755  0.03797375    -0.01160
Br1442     Br  0.68739530  0.06242782  0.08559840    -0.01140
C1443       C  0.77330770  0.46038869  0.04041123    -0.02270
C1444       C  0.74540077  0.45858689  0.02191490     0.07410
C1445       C  0.71708028  0.42759663  0.02241183    -0.02380
C1446       C  0.71922455  0.39794374  0.03904877    -0.02380
C1447       C  0.74465032  0.40176160  0.05799084     0.07550
C1448       C  0.77068732  0.43391468  0.05902325    -0.02580
Br1449     Br  0.80272522  0.44241705  0.08615613    -0.01130
Br1450     Br  0.81977189  0.49331711  0.03976091    -0.01200
Br1451     Br  0.68978478  0.35003768  0.03429190    -0.01160
Br1452     Br  0.67226090  0.42525734  0.00182937    -0.01140
C1453       C  0.77282664  0.04588895  0.96034449    -0.02270
C1454       C  0.74584097  0.05049000  0.97912757     0.07410
C1455       C  0.71739121  0.08162711  0.97762258    -0.02380
C1456       C  0.71750966  0.10783657  0.95894176    -0.02380
C1457       C  0.74267536  0.10137229  0.94011953     0.07550
C1458       C  0.76877940  0.06905513  0.94040975    -0.02580
Br1459     Br  0.79823783  0.05516531  0.91302794    -0.01130
Br1460     Br  0.82045393  0.01425085  0.96218905    -0.01200
Br1461     Br  0.68482886  0.15448026  0.95996008    -0.01160
Br1462     Br  0.67559888  0.08888046  0.99989986    -0.01140
C1463       C  0.72276485  0.43938092  0.94123997    -0.02270
C1464       C  0.75264489  0.41030028  0.93951735     0.07410
C1465       C  0.78429931  0.41088989  0.95530835    -0.02380
C1466       C  0.78173622  0.43385895  0.97521472    -0.02380
C1467       C  0.75005413  0.46121613  0.97826462     0.07550
C1468       C  0.72097137  0.46433282  0.96054926    -0.02580
Br1469     Br  0.67502596  0.49834302  0.96326254    -0.01130
Br1470     Br  0.68706369  0.44896312  0.91578899    -0.01200
Br1471     Br  0.82444470  0.42811210  0.99716172    -0.01160
Br1472     Br  0.83372004  0.38374719  0.94904887    -0.01140
C1473       C  0.53132161  0.17999804  0.73275141    -0.02270
C1474       C  0.99848491  0.20711459  0.73470182     0.07410
C1475       C  0.96353857  0.19606475  0.72195720    -0.02380
C1476       C  0.96247088  0.16058852  0.70998043    -0.02380
C1477       C  0.99817954  0.14374480  0.70206918     0.07550
C1478       C  0.53337794  0.15439424  0.71376204    -0.02580
Br1479     Br  0.58539016  0.13607711  0.70457069    -0.01130
Br1480     Br  0.56835732  0.16649782  0.75698526    -0.01200
Br1481     Br  0.91274815  0.13237720  0.71041082    -0.01160
Br1482     Br  0.91599331  0.22692610  0.71834893    -0.01140
C1483       C  0.99449157  0.31653666  0.69541018    -0.02270
C1484       C  0.99867950  0.35324582  0.70552429     0.07410
C1485       C  0.50734611  0.35587129  0.72899710    -0.02380
C1486       C  0.50706579  0.32198297  0.74311614    -0.02380
C1487       C  0.00199862  0.28333850  0.73338103     0.07550
C1488       C  0.00095640  0.28220787  0.70835296    -0.02580
Br1489     Br  0.01815580  0.23953115  0.68863702    -0.01130
Br1490     Br  0.98272127  0.31362038  0.66269193    -0.01200
Br1491     Br  0.50770546  0.33210163  0.77582874    -0.01160
Br1492     Br  0.51672870  0.40712860  0.74188855    -0.01140
C1493       C  0.56003628  0.26397526  0.80559246    -0.02270
C1494       C  0.59951891  0.26484721  0.79835846     0.07410
C1495       C  0.60762932  0.25997661  0.77487894    -0.02380
C1496       C  0.57596257  0.25611249  0.75888634    -0.02380
C1497       C  0.53615017  0.24753946  0.76676150     0.07550
C1498       C  0.53206385  0.24585061  0.79138634    -0.02580
Br1499     Br  0.51992849  0.19773246  0.80681958    -0.01130
Br1500     Br  0.54650968  0.27534461  0.83716348    -0.01200
Br1501     Br  0.59085992  0.25829524  0.72695474    -0.01160
Br1502     Br  0.66230426  0.25685517  0.76499257    -0.01140
C1503       C  0.94661718  0.21165384  0.77777810    -0.02270
C1504       C  0.95786084  0.24553508  0.76445216     0.07410
C1505       C  0.92873156  0.27712369  0.76523921    -0.02380
C1506       C  0.89947832  0.27846461  0.78285810    -0.02380
C1507       C  0.89781325  0.24911977  0.79983243     0.07550
C1508       C  0.92086271  0.21515961  0.79675921    -0.02580
Br1509     Br  0.91938397  0.17278428  0.81911419    -0.01130
Br1510     Br  0.95999661  0.15750019  0.77024560    -0.01200
Br1511     Br  0.85799679  0.31835676  0.78201204    -0.01160
Br1512     Br  0.91863912  0.31476927  0.74066606    -0.01140
C1513       C  0.82288831  0.47865127  0.73555096    -0.02270
C1514       C  0.78855953  0.00467685  0.73564972     0.07410
C1515       C  0.78703731  0.03277800  0.71691601    -0.02380
C1516       C  0.81614123  0.03287888  0.69941809    -0.02380
C1517       C  0.85049005  0.00982851  0.70157484     0.07550
C1518       C  0.85518962  0.48609157  0.72092131    -0.02580
Br1519     Br  0.90706488  0.46361649  0.72762077    -0.01130
Br1520     Br  0.82738516  0.42634409  0.74876511    -0.01200
Br1521     Br  0.80834170  0.06436911  0.67208886    -0.01160
Br1522     Br  0.74767989  0.07444908  0.71468911    -0.01140
C1523       C  0.64628260  0.02078730  0.72353414    -0.02270
C1524       C  0.65155483  0.00079748  0.70290003     0.07410
C1525       C  0.68667885  0.98008858  0.69901705    -0.02380
C1526       C  0.71494349  0.97623799  0.71663287    -0.02380
C1527       C  0.71389957  0.00111112  0.73682719     0.07550
C1528       C  0.67838228  0.02544965  0.73893085    -0.02580
Br1529     Br  0.67039073  0.07070384  0.75833808    -0.01130
Br1530     Br  0.59372209  0.04088288  0.73074954    -0.01200
Br1531     Br  0.75089082  0.43258835  0.71243243    -0.01160
Br1532     Br  0.69685769  0.95785379  0.66893618    -0.01140
C1533       C  0.72812583  0.03740767  0.79162380    -0.02270
C1534       C  0.75164044  0.03850272  0.77061231     0.07410
C1535       C  0.77606568  0.07314463  0.76805896    -0.02380
C1536       C  0.76744081  0.10704959  0.78074063    -0.02380
C1537       C  0.74533418  0.10464333  0.80094837     0.07550
C1538       C  0.72816685  0.06903045  0.80720413    -0.02580
Br1539     Br  0.70511484  0.06347843  0.83759762    -0.01130
Br1540     Br  0.69043574  0.99686123  0.79961554    -0.01200
Br1541     Br  0.78755934  0.15734725  0.77081286    -0.01160
Br1542     Br  0.82886965  0.07618647  0.75444348    -0.01140
C1543       C  0.78365703  0.46343220  0.78761772    -0.02270
C1544       C  0.75479582  0.46458279  0.76909856     0.07410
C1545       C  0.72766044  0.43168006  0.76811441    -0.02380
C1546       C  0.73430912  0.39856020  0.78184622    -0.02380
C1547       C  0.75893690  0.40069067  0.80104135     0.07550
C1548       C  0.78355796  0.43315599  0.80404987    -0.02580
Br1549     Br  0.81681393  0.43699551  0.83119604    -0.01130
Br1550     Br  0.82653351  0.50057319  0.79106755    -0.01200
Br1551     Br  0.70900007  0.34942407  0.77447297    -0.01160
Br1552     Br  0.67427771  0.43083534  0.75511579    -0.01140
C1553       C  0.61473938  0.22243223  0.03356411    -0.02270
C1554       C  0.60368230  0.23749811  0.05527010     0.07410
C1555       C  0.56289990  0.24012670  0.06047158    -0.02380
C1556       C  0.53471361  0.23001823  0.04369101    -0.02380
C1557       C  0.54601162  0.23051983  0.02032672     0.07550
C1558       C  0.58551151  0.21777592  0.01628028    -0.02580
Br1559     Br  0.59770815  0.18908960  0.98876510    -0.01130
Br1560     Br  0.66946626  0.20950588  0.02723514    -0.01200
Br1561     Br  0.50057134  0.18804205  0.05342969    -0.01160
Br1562     Br  0.54528030  0.24973800  0.09144519    -0.01140
C1563       C  0.92101242  0.22181459  0.02551802    -0.02270
C1564       C  0.95456907  0.24688367  0.02357398     0.07410
C1565       C  0.95938114  0.27641447  0.04060084    -0.02380
C1566       C  0.93396103  0.27761184  0.05989950    -0.02380
C1567       C  0.89961156  0.25417854  0.06045894     0.07550
C1568       C  0.89182312  0.22901768  0.04213303    -0.02580
Br1569     Br  0.83831736  0.21091173  0.03714328    -0.01130
Br1570     Br  0.91471391  0.17541535  0.00715525    -0.01200
Br1571     Br  0.94630976  0.31159632  0.08533385    -0.01160
Br1572     Br  0.99790447  0.31769019  0.03704687    -0.01140
C1573       C  0.53068535  0.26200981  0.95698938    -0.02270
C1574       C  0.54277076  0.26613413  0.98009408     0.07410
C1575       C  0.58071664  0.28363136  0.98290203    -0.02380
C1576       C  0.60918047  0.28135492  0.96495199    -0.02380
C1577       C  0.59929715  0.26239632  0.94415999     0.07550
C1578       C  0.55930727  0.25243517  0.94035000    -0.02580
Br1579     Br  0.54155689  0.23442405  0.91075626    -0.01130
Br1580     Br  0.49468076  0.30142229  0.94547241    -0.01200
Br1581     Br  0.66202981  0.30150212  0.96945162    -0.01160
Br1582     Br  0.59265371  0.31311821  0.01016519    -0.01140
C1583       C  0.91996483  0.27443046  0.97939899    -0.02270
C1584       C  0.95256368  0.24794547  0.98044331     0.07410
C1585       C  0.95464592  0.21758808  0.96372586    -0.02380
C1586       C  0.92719504  0.21680637  0.94531498    -0.02380
C1587       C  0.89434133  0.24268608  0.94524538     0.07550
C1588       C  0.88919596  0.26846691  0.96369282    -0.02580
Br1589     Br  0.83732172  0.29012037  0.97008727    -0.01130
Br1590     Br  0.91753751  0.32130703  0.99770542    -0.01200
Br1591     Br  0.93492549  0.18028219  0.92047785    -0.01160
Br1592     Br  0.99323925  0.17567777  0.96644599    -0.01140
C1593       C  0.79123837  0.03470910  0.28253256    -0.02270
C1594       C  0.78757801  0.00367502  0.26567909     0.07410
C1595       C  0.82094066  0.47685467  0.26407867    -0.02380
C1596       C  0.85180753  0.47794372  0.28069707    -0.02380
C1597       C  0.85156552  0.00585367  0.29846158     0.07550
C1598       C  0.82117789  0.03394461  0.29937994    -0.02580
Br1599     Br  0.81478809  0.06617465  0.32676789    -0.01130
Br1600     Br  0.75416763  0.07777597  0.28591897    -0.01200
Br1601     Br  0.89655460  0.44216696  0.27864231    -0.01160
Br1602     Br  0.83358420  0.44569841  0.23708456    -0.01140
C1603       C  0.67171586  0.98734031  0.25885108    -0.02270
C1604       C  0.71164263  0.99401620  0.26729025     0.07410
C1605       C  0.71514553  0.49099337  0.29227671    -0.02380
C1606       C  0.68197575  0.49663276  0.30649831    -0.02380
C1607       C  0.64394039  0.99449986  0.29734327     0.07550
C1608       C  0.63863387  0.98816695  0.27389947    -0.02580
Br1609     Br  0.58474722  0.98558095  0.26236897    -0.01130
Br1610     Br  0.65772948  0.97907444  0.22716758    -0.01200
Br1611     Br  0.68844768  0.50453703  0.33943703    -0.01160
Br1612     Br  0.75864407  0.46766470  0.31004343    -0.01140
C1613       C  0.78446584  0.05506300  0.22437781    -0.02270
C1614       C  0.74937106  0.04394521  0.23733468     0.07410
C1615       C  0.71714542  0.07251458  0.23618928    -0.02380
C1616       C  0.71927397  0.10506078  0.22086429    -0.02380
C1617       C  0.75051249  0.10830265  0.20491782     0.07550
C1618       C  0.78226661  0.08188516  0.20630527    -0.02580
Br1619     Br  0.81954096  0.07508413  0.18109357    -0.01130
Br1620     Br  0.83952174  0.04568585  0.23238578    -0.01200
Br1621     Br  0.67930399  0.14615494  0.22156540    -0.01160
Br1622     Br  0.67095157  0.07404624  0.25594811    -0.01140
C1623       C  0.74843230  0.44301332  0.19074810    -0.02270
C1624       C  0.74458246  0.40456619  0.19820909     0.07410
C1625       C  0.74234830  0.39646271  0.22158439    -0.02380
C1626       C  0.74509037  0.42689020  0.23795164    -0.02380
C1627       C  0.74734788  0.46770712  0.23124447     0.07550
C1628       C  0.74468541  0.47422491  0.20643967    -0.02580
Br1629     Br  0.72047630  0.51873039  0.19094777    -0.01130
Br1630     Br  0.75522382  0.45252556  0.15802351    -0.01200
Br1631     Br  0.74745055  0.40839383  0.26894286    -0.01160
Br1632     Br  0.73779759  0.34213871  0.23079404    -0.01140
C1633       C  0.74866566  0.00217825  0.25026310    -0.02910
C1634       C  0.97855219  0.74728211  0.00156328     0.00150
C1635       C  0.52009900  0.74780830  0.00069643     0.00150
C1636       C  0.75204377  0.50224338  0.75318819    -0.02910
C1637       C  0.49859037  0.74563808  0.74973510    -0.02910
C1638       C  0.74763191  0.98443320  0.00046442     0.00150
C1639       C  0.74788420  0.52536678  0.00093783     0.00150
C1640       C  0.74999841  0.87838722  0.92211651     0.42040
N1641       N  0.76694240  0.83496686  0.89719682     0.00930
C1642       C  0.64437394  0.72556604  0.82700589    -0.06950
H1643       H  0.63493447  0.69238957  0.91750407     0.06420
C1644       C  0.77965464  0.64728327  0.91111465    -0.07300
Co1645     Co  0.69642996  0.80522637  0.87164932     0.74180
N1646       N  0.66434763  0.73499956  0.89597448    -0.26480
Co1647     Co  0.69524441  0.70383748  0.87032259     0.74070
C1648       C  0.74410719  0.63016145  0.92108148     0.42140
N1649       N  0.82887082  0.73240684  0.89705136     0.00550
N1650       N  0.72688695  0.67121461  0.89490417     0.00650
N1651       N  0.64507597  0.79158402  0.82875205    -0.47320
H1652       H  0.68332250  0.86704209  0.91558821     0.06410
N1653       N  0.66510105  0.77364083  0.89641912     0.00940
N1654       N  0.72772346  0.67477386  0.84489946     0.00680
C1655       C  0.74554778  0.63779259  0.81706947     0.42280
N1656       N  0.82904151  0.77100005  0.89778304    -0.25930
C1657       C  0.71820870  0.85789624  0.82984152    -0.06850
N1658       N  0.78132359  0.86086895  0.91179795    -0.47040
N1659       N  0.71355622  0.65220336  0.82834827    -0.47260
C1660       C  0.75510474  0.87081624  0.81911520     0.42050
N1661       N  0.66594392  0.77560197  0.84575545     0.00920
N1662       N  0.83157773  0.77367394  0.84821224    -0.25950
N1663       N  0.72776464  0.83480976  0.89690671    -0.26450
N1664       N  0.82951194  0.73539796  0.84667820     0.00560
H1665       H  0.86531971  0.81709263  0.83005423     0.06450
H1666       H  0.81181307  0.64575576  0.82525064     0.06490
N1667       N  0.66569086  0.73703583  0.84526236    -0.26500
N1668       N  0.76612616  0.67176517  0.89496626    -0.26110
N1669       N  0.76918173  0.83409795  0.84761322     0.00930
C1670       C  0.62876546  0.75824742  0.92535222     0.42330
C1671       C  0.85231698  0.78235683  0.91512625    -0.07360
N1672       N  0.76695097  0.67506735  0.84537015    -0.26110
H1673       H  0.81060074  0.64126048  0.91477654     0.06470
N1674       N  0.64410535  0.78864782  0.91357623    -0.47330
H1675       H  0.85943095  0.81225881  0.91939917     0.06460
C1676       C  0.86940365  0.75205083  0.81950679     0.42160
C1677       C  0.71429359  0.86032732  0.91254659    -0.06860
Co1678     Co  0.79970576  0.80395690  0.87288124     0.73820
N1679       N  0.85112223  0.71620662  0.91333678    -0.47050
C1680       C  0.63143282  0.76175072  0.81582136     0.42430
N1681       N  0.78546270  0.85513908  0.83108461    -0.47040
Co1682     Co  0.79836970  0.70320480  0.87101097     0.73890
C1683       C  0.78086786  0.65258935  0.82841233    -0.07360
C1684       C  0.64164660  0.72253916  0.91353509    -0.06930
N1685       N  0.72993965  0.83503142  0.84723976    -0.26450
N1686       N  0.71237744  0.64640415  0.91027366    -0.47220
H1687       H  0.63826575  0.69562993  0.82226292     0.06430
C1688       C  0.85674218  0.78688941  0.83218698    -0.07340
Cl1689     Cl  0.74739455  0.75400716  0.87162186    -0.50340
C1690       C  0.86672266  0.74601078  0.92548529     0.42190
H1691       H  0.68777222  0.86514957  0.82554994     0.06400
N1692       N  0.85123841  0.72136524  0.82963733    -0.47050
C1693       C  0.63179226  0.75142884  0.18425630     0.42040
N1694       N  0.66411530  0.76743016  0.15400869     0.00930
C1695       C  0.79128969  0.64396142  0.09463716    -0.06950
H1696       H  0.81584441  0.65707280  0.18209478     0.06420
C1697       C  0.84907008  0.79438440  0.17278624    -0.07300
Co1698     Co  0.70027017  0.69786938  0.13066291     0.74180
N1699       N  0.77128798  0.67654055  0.15814573    -0.26480
Co1700     Co  0.80198880  0.70624469  0.13266598     0.74070
C1701       C  0.86308192  0.75998680  0.18558170     0.42140
N1702       N  0.76038660  0.83592019  0.15356290     0.00550
N1703       N  0.82734843  0.74140714  0.15724663     0.00650
N1704       N  0.72455865  0.64119387  0.09187945    -0.47320
H1705       H  0.64319332  0.68587903  0.17817762     0.06410
N1706       N  0.73255438  0.67167270  0.15702893     0.00940
N1707       N  0.83201762  0.73803302  0.10698827     0.00680
C1708       C  0.87115277  0.75582351  0.07982774     0.42280
N1709       N  0.72120843  0.83354809  0.15343592    -0.25930
C1710       C  0.65024456  0.70882904  0.08670747    -0.06850
N1711       N  0.64283206  0.78199423  0.17111945    -0.47040
N1712       N  0.85718576  0.72432560  0.09138539    -0.47260
C1713       C  0.63338858  0.74137164  0.07391094     0.42050
N1714       N  0.73585764  0.66790350  0.10698985     0.00920
N1715       N  0.72253312  0.83130391  0.10358893    -0.25950
N1716       N  0.66685302  0.72894220  0.15474749    -0.26450
N1717       N  0.76170493  0.83355183  0.10365563     0.00560
H1718       H  0.67713934  0.86087737  0.08401392     0.06450
H1719       H  0.85589850  0.82084596  0.08500009     0.06490
N1720       N  0.77478464  0.67048221  0.10854537    -0.26500
N1721       N  0.82669850  0.77977415  0.15575507    -0.26110
N1722       N  0.66508838  0.76373324  0.10321379     0.00930
C1723       C  0.75040680  0.63923674  0.18692529     0.42330
C1724       C  0.70706539  0.85631473  0.17042612    -0.07360
N1725       N  0.82874540  0.77650170  0.10609953    -0.26110
H1726       H  0.85520787  0.82503158  0.17550431     0.06470
N1727       N  0.71883653  0.64897169  0.17368665    -0.47330
H1728       H  0.67605098  0.86131017  0.17438659     0.06460
C1729       C  0.74344810  0.87223111  0.07660657     0.42160
C1730       C  0.64671947  0.71608904  0.17314325    -0.06860
Co1731     Co  0.69214045  0.79960859  0.12846273     0.73820
N1732       N  0.77427902  0.85931880  0.16970303    -0.47050
C1733       C  0.75792951  0.62455401  0.08308989     0.42430
N1734       N  0.64296146  0.77462891  0.08533092    -0.47040
Co1735     Co  0.79485197  0.80698826  0.12962514     0.73890
C1736       C  0.85207296  0.79035825  0.08938697    -0.07360
C1737       C  0.78505730  0.65822729  0.17682014    -0.06930
N1738       N  0.66924106  0.72531353  0.10437865    -0.26450
N1739       N  0.84815117  0.72853518  0.17488192    -0.47220
H1740       H  0.82263313  0.63746986  0.09468037     0.06430
C1741       C  0.70826831  0.85500138  0.08722060    -0.07340
Cl1742     Cl  0.74721441  0.75271460  0.13002534    -0.50340
C1743       C  0.74251773  0.87277937  0.18127443     0.42190
H1744       H  0.64792218  0.67779119  0.08347887     0.06400
N1745       N  0.77545825  0.85773707  0.08777946    -0.47050
C1746       C  0.62018584  0.50162558  0.68525019     0.42040
N1747       N  0.58263236  0.98250246  0.65796842     0.00930
C1748       C  0.96834589  0.59908522  0.58548003    -0.06950
H1749       H  0.93267507  0.60957395  0.66959129     0.06420
C1750       C  0.89494237  0.96980177  0.67310632    -0.07300
Co1751     Co  0.55200124  0.54907572  0.62981373     0.74180
N1752       N  0.97910701  0.58055741  0.65197143    -0.26480
Co1753     Co  0.94885314  0.54754316  0.62802809     0.74070
C1754       C  0.87947974  0.50624414  0.68257450     0.42140
N1755       N  0.98219214  0.92069344  0.66029911     0.00550
N1756       N  0.91771299  0.51924833  0.65418544     0.00650
N1757       N  0.53523316  0.60234302  0.58806159    -0.47320
H1758       H  0.61216763  0.56631451  0.67523865     0.06410
N1759       N  0.51808953  0.58065930  0.65355408     0.00940
N1760       N  0.91893742  0.51292071  0.60439909     0.00680
C1761       C  0.87694756  0.49391806  0.57923185     0.42280
N1762       N  0.52135594  0.92157530  0.66042443    -0.25930
C1763       C  0.60953131  0.52471619  0.58965194    -0.06850
N1764       N  0.60532725  0.96965390  0.67495499    -0.47040
N1765       N  0.89398091  0.52582918  0.58844252    -0.47260
C1766       C  0.62593073  0.48770236  0.58112646     0.42050
N1767       N  0.52051160  0.57740462  0.60329824     0.00920
N1768       N  0.52299639  0.91349097  0.61041475    -0.25950
N1769       N  0.58220564  0.52094950  0.65628661    -0.26450
N1770       N  0.98384411  0.91221228  0.61024243     0.00560
H1771       H  0.56805014  0.88327528  0.59104392     0.06450
H1772       H  0.88590627  0.92927916  0.58919695     0.06490
N1773       N  0.98133640  0.57570511  0.60243571    -0.26500
N1774       N  0.91848280  0.98079114  0.65581670    -0.26110
N1775       N  0.58506696  0.97592217  0.60833913     0.00930
C1776       C  0.99809963  0.61717803  0.68156476     0.42330
C1777       C  0.53465671  0.90206277  0.67886999    -0.07360
N1778       N  0.91930282  0.97437132  0.60633833    -0.26110
H1779       H  0.88883147  0.93995941  0.67810687     0.06470
N1780       N  0.53069484  0.60216110  0.67100385    -0.47330
H1781       H  0.56552343  0.89646436  0.68296177     0.06460
C1782       C  0.00165036  0.86930312  0.58495866     0.42160
C1783       C  0.60533057  0.53575385  0.67284636    -0.06860
Co1784     Co  0.55344818  0.94791440  0.63419253     0.73820
N1785       N  0.96766741  0.90035862  0.67780384    -0.47050
C1786       C  0.00413431  0.61734917  0.57609684     0.42430
N1787       N  0.60911830  0.95876317  0.59334786    -0.47040
Co1788     Co  0.95044599  0.94634682  0.63308007     0.73890
C1789       C  0.89375863  0.95972649  0.59092800    -0.07360
C1790       C  0.96395457  0.60364756  0.66816632    -0.06930
N1791       N  0.58466703  0.51449612  0.60659923    -0.26450
N1792       N  0.89458966  0.53577632  0.66990914    -0.47220
H1793       H  0.93746866  0.60469638  0.58144518     0.06430
C1794       C  0.53694902  0.88818372  0.59471806    -0.07340
Cl1795     Cl  0.00116729  0.49769716  0.63100798    -0.50340
C1796       C  0.99910776  0.88837681  0.69063338     0.42190
H1797       H  0.61618464  0.55429681  0.58436898     0.06400
N1798       N  0.97003410  0.88623043  0.59544040    -0.47050
C1799       C  0.99027003  0.88139456  0.31882115     0.42040
N1800       N  0.51023415  0.91889559  0.34562690     0.00930
C1801       C  0.89604604  0.54352403  0.41212848    -0.06950
H1802       H  0.89986305  0.57022627  0.32149512     0.06420
C1803       C  0.54065752  0.60118488  0.32689870    -0.07300
Co1804     Co  0.94375148  0.95549753  0.37143295     0.74180
N1805       N  0.92046631  0.52645370  0.34510367    -0.26480
Co1806     Co  0.95271795  0.55701605  0.36962082     0.74070
C1807       C  0.00618407  0.61685580  0.31419591     0.42140
N1808       N  0.57996119  0.51399496  0.34366021     0.00550
N1809       N  0.98664928  0.58339878  0.34383407     0.00650
N1810       N  0.89336324  0.97754990  0.41250441    -0.47320
H1811       H  0.92441235  0.89380221  0.32698538     0.06410
N1812       N  0.91574632  0.98828171  0.34612170     0.00940
N1813       N  0.98745099  0.58670151  0.39384507     0.00680
C1814       C  0.00646757  0.62950998  0.41881645     0.42280
N1815       N  0.57596349  0.97557363  0.34354799    -0.25930
C1816       C  0.96025843  0.90099458  0.41377669    -0.06850
N1817       N  0.52296565  0.89481035  0.32947434    -0.47040
N1818       N  0.97456185  0.61403036  0.40810761    -0.47260
C1819       C  0.99564333  0.88218773  0.42355944     0.42050
N1820       N  0.91717857  0.99040581  0.39613351     0.00920
N1821       N  0.58016358  0.97568130  0.39331286    -0.25950
N1822       N  0.97118388  0.92154286  0.34647051    -0.26450
N1823       N  0.58463718  0.51389444  0.39367570     0.00560
H1824       H  0.60645293  0.92825569  0.41066520     0.06450
H1825       H  0.57248974  0.61224315  0.41323337     0.06490
N1826       N  0.91944113  0.52891939  0.39543100    -0.26500
N1827       N  0.52556617  0.58064839  0.34437094    -0.26110
N1828       N  0.51302720  0.91936748  0.39555050     0.00930
C1829       C  0.88283091  0.50587541  0.31628544     0.42330
C1830       C  0.59422366  0.96118495  0.32492221    -0.07360
N1831       N  0.52654028  0.58293319  0.39418475    -0.26110
H1832       H  0.57207988  0.60460889  0.32451763     0.06470
N1833       N  0.89296707  0.97476946  0.32937079    -0.47330
H1834       H  0.59689173  0.93060088  0.32046848     0.06460
C1835       C  0.62777028  0.49160769  0.41804698     0.42160
C1836       C  0.95569858  0.89856113  0.33012180    -0.06860
Co1837     Co  0.54538385  0.94692782  0.36956929     0.73820
N1838       N  0.60058909  0.52698075  0.32591099    -0.47050
C1839       C  0.87876547  0.50916959  0.42342041     0.42430
N1840       N  0.52714625  0.89502781  0.41132903    -0.47040
Co1841     Co  0.55499474  0.54832587  0.36930478     0.73890
C1842       C  0.54124429  0.60811611  0.40975027    -0.07360
C1843       C  0.90155313  0.54000202  0.32657028    -0.06930
N1844       N  0.97399088  0.92305190  0.39643450    -0.26450
N1845       N  0.97401321  0.60505771  0.32640870    -0.47220
H1846       H  0.89046018  0.57418125  0.41526473     0.06430
C1847       C  0.60477933  0.95930922  0.40840221    -0.07340
Cl1848     Cl  0.99916573  0.50202615  0.37026919    -0.50340
C1849       C  0.60985327  0.49548288  0.31306661     0.42190
H1850       H  0.92932476  0.89747357  0.41835249     0.06400
N1851       N  0.61288309  0.52463289  0.40821939    -0.47050
C1852       C  0.50330201  0.77241562  0.50139741     0.00150
C1853       C  0.50478273  0.73137323  0.50016964     0.00150
C1854       C  0.76883460  0.99230538  0.50074676     0.00150
C1855       C  0.72734208  0.98916176  0.49974893     0.00150
C1856       C  0.49898277  0.75297967  0.25068276    -0.02910
C1857       C  0.50377078  0.85827056  0.27936676    -0.02270
C1858       C  0.99151738  0.84998055  0.30171498     0.07410
C1859       C  0.98744114  0.81134049  0.30880237    -0.02380
C1860       C  0.99803816  0.78067806  0.29392115    -0.02380
C1861       C  0.00189062  0.78732554  0.26937647     0.07550
C1862       C  0.50844364  0.82792103  0.26307294    -0.02580
Br1863     Br  0.52433265  0.84641313  0.23322348    -0.01130
Br1864     Br  0.51054978  0.91270515  0.27102441    -0.01200
Br1865     Br  0.02124409  0.73744351  0.31095976    -0.01160
Br1866     Br  0.97036196  0.80062110  0.34000822    -0.01140
C1867       C  0.53416075  0.68459177  0.26333247    -0.02270
C1868       C  0.00048610  0.71132934  0.26330424     0.07410
C1869       C  0.96630934  0.69707808  0.27570510    -0.02380
C1870       C  0.96750281  0.66117969  0.28752971    -0.02380
C1871       C  0.00426253  0.64438669  0.29385404     0.07550
C1872       C  0.53789860  0.65575252  0.28076571    -0.02580
Br1873     Br  0.58941793  0.63120173  0.28437665    -0.01130
Br1874     Br  0.57031657  0.67564800  0.23771800    -0.01200
Br1875     Br  0.91771137  0.63443682  0.29281807    -0.01160
Br1876     Br  0.91764982  0.72598879  0.28069657    -0.01140
C1877       C  0.53520054  0.68769656  0.44094322    -0.02270
C1878       C  0.00428069  0.66047404  0.43717402     0.07410
C1879       C  0.97094533  0.66235479  0.45177269    -0.02380
C1880       C  0.97318010  0.68187767  0.47292528    -0.02380
C1881       C  0.50409659  0.70914630  0.47736689     0.07550
C1882       C  0.53441657  0.71290893  0.46036301    -0.02580
Br1883     Br  0.57829554  0.74850024  0.46442112    -0.01130
Br1884     Br  0.57638768  0.69421892  0.41817324    -0.01200
Br1885     Br  0.93161089  0.67033296  0.49471485    -0.01160
Br1886     Br  0.91932705  0.64461410  0.44176360    -0.01140
C1887       C  0.97235276  0.82087037  0.44354726    -0.02270
C1888       C  0.99809639  0.85322899  0.44265453     0.07410
C1889       C  0.52635740  0.85812258  0.46018941    -0.02380
C1890       C  0.52966246  0.83052519  0.47813337    -0.02380
C1891       C  0.50248069  0.79867131  0.48004080     0.07550
C1892       C  0.97276963  0.79529249  0.46264945    -0.02580
Br1893     Br  0.92733756  0.76157658  0.46606875    -0.01130
Br1894     Br  0.93717501  0.81021069  0.41805722    -0.01200
Br1895     Br  0.57350547  0.83730191  0.49909899    -0.01160
Br1896     Br  0.55944931  0.90436990  0.46050596    -0.01140
C1897       C  0.68157338  0.52371112  0.44255298    -0.02270
C1898       C  0.66003685  0.48989718  0.43590140     0.07410
C1899       C  0.66742859  0.95487279  0.44817067    -0.02380
C1900       C  0.68454660  0.95624479  0.47001798    -0.02380
C1901       C  0.70643626  0.98942699  0.47683896     0.07550
C1902       C  0.70603560  0.52284636  0.46234960    -0.02580
Br1903     Br  0.73138180  0.57068341  0.47208144    -0.01130
Br1904     Br  0.67967443  0.57136688  0.42462405    -0.01200
Br1905     Br  0.67895888  0.91066149  0.48949568    -0.01160
Br1906     Br  0.66634644  0.90400661  0.43380404    -0.01140
C1907       C  0.79332217  0.97293997  0.46001319    -0.02270
C1908       C  0.79396617  0.99885502  0.47919314     0.07410
C1909       C  0.82320321  0.52882135  0.47909300    -0.02380
C1910       C  0.85253370  0.52988744  0.46189970    -0.02380
C1911       C  0.84850126  0.50727290  0.44195340     0.07550
C1912       C  0.81728060  0.98021388  0.44064755    -0.02580
Br1913     Br  0.80698667  0.95213861  0.41244695    -0.01130
Br1914     Br  0.76884660  0.92214173  0.46122680    -0.01200
Br1915     Br  0.90152677  0.55690391  0.46793749    -0.01160
Br1916     Br  0.82477422  0.56971708  0.50193975    -0.01140
C1917       C  0.66168855  0.50421858  0.52117593    -0.02270
C1918       C  0.69974525  0.98475209  0.52055392     0.07410
C1919       C  0.70858862  0.95922470  0.53933456    -0.02380
C1920       C  0.68584623  0.96125385  0.55976650    -0.02380
C1921       C  0.64966637  0.48207373  0.56002099     0.07550
C1922       C  0.63573511  0.49862262  0.53968876    -0.02580
Br1923     Br  0.57935736  0.50902930  0.53646480    -0.01130
Br1924     Br  0.64301142  0.54225903  0.49914089    -0.01200
Br1925     Br  0.70410516  0.93549489  0.58730651    -0.01160
Br1926     Br  0.74615966  0.91666872  0.53656735    -0.01140
C1927       C  0.81208233  0.01512742  0.56107637    -0.02270
C1928       C  0.84825427  0.49425219  0.55996411     0.07410
C1929       C  0.85754314  0.47319745  0.54014976    -0.02380
C1930       C  0.82887033  0.46781626  0.52306019    -0.02380
C1931       C  0.79324702  0.99067269  0.52279450     0.07550
C1932       C  0.78597579  0.01570379  0.54196137    -0.02580
Br1933     Br  0.74496491  0.05547697  0.54135880    -0.01130
Br1934     Br  0.79876631  0.04368744  0.58860012    -0.01200
Br1935     Br  0.83974849  0.42656343  0.50142958    -0.01160
Br1936     Br  0.91184341  0.45701430  0.53460199    -0.01140
C1937       C  0.53680177  0.64860479  0.54169770    -0.02270
C1938       C  0.00664038  0.64923620  0.55845350     0.07410
C1939       C  0.97826788  0.67984611  0.55778150    -0.02380
C1940       C  0.97683313  0.70621721  0.53903746    -0.02380
C1941       C  0.50649945  0.70513167  0.52152624     0.07550
C1942       C  0.53691957  0.67602622  0.52355078    -0.02580
Br1943     Br  0.58086119  0.67286425  0.50227690    -0.01130
Br1944     Br  0.57874133  0.60990319  0.54325874    -0.01200
Br1945     Br  0.92962382  0.73830586  0.53640542    -0.01160
Br1946     Br  0.94299601  0.68837630  0.58356033    -0.01140
C1947       C  0.96741798  0.84071702  0.55011661    -0.02270
C1948       C  0.99959131  0.84014573  0.56565875     0.07410
C1949       C  0.53063176  0.81285082  0.56177680    -0.02380
C1950       C  0.53208460  0.79051810  0.54129423    -0.02380
C1951       C  0.50181504  0.79436801  0.52429828     0.07550
C1952       C  0.96997871  0.82091814  0.52895725    -0.02580
Br1953     Br  0.92766955  0.83086837  0.50725106    -0.01130
Br1954     Br  0.91717668  0.86466795  0.55828882    -0.01200
Br1955     Br  0.57942609  0.75974667  0.53579892    -0.00520
Br1956     Br  0.56894567  0.80190033  0.58572370    -0.01140
C1957       C  0.56032877  0.75341449  0.19321253    -0.02270
C1958       C  0.59937416  0.75380437  0.20110811     0.07410
C1959       C  0.60713408  0.76070545  0.22439668    -0.02380
C1960       C  0.57547006  0.76238948  0.24046814    -0.02380
C1961       C  0.53473313  0.75870801  0.23296220     0.07550
C1962       C  0.52903886  0.76167332  0.20830797    -0.02580
Br1963     Br  0.48739138  0.79179035  0.19300042    -0.01130
Br1964     Br  0.54975224  0.74444355  0.16089368    -0.01200
Br1965     Br  0.59092054  0.76655086  0.27228568    -0.01160
Br1966     Br  0.66185133  0.76382217  0.23427874    -0.01140
C1967       C  0.89501658  0.78353570  0.22200696    -0.02270
C1968       C  0.89410069  0.75720871  0.20358030     0.07410
C1969       C  0.92209562  0.72670463  0.20264752    -0.02380
C1970       C  0.95086460  0.72247385  0.21998196    -0.02380
C1971       C  0.95800604  0.75319600  0.23655115     0.07550
C1972       C  0.92663299  0.78259040  0.23817963    -0.02580
Br1973     Br  0.91880433  0.81912905  0.26326245    -0.01130
Br1974     Br  0.85090678  0.81997615  0.22558727    -0.01200
Br1975     Br  0.97956935  0.67354188  0.21832237    -0.01160
Br1976     Br  0.92673449  0.69434827  0.17516441    -0.01140
C1977       C  0.78859973  0.59439389  0.04725847    -0.02270
C1978       C  0.75812699  0.59497240  0.06397595     0.07410
C1979       C  0.72582250  0.56892370  0.06118346    -0.02380
C1980       C  0.72242272  0.54545971  0.04123210    -0.02380
C1981       C  0.75090835  0.54842122  0.02322960     0.07550
C1982       C  0.78319545  0.57460016  0.02634775    -0.02580
Br1983     Br  0.82319897  0.58264596  0.00300438    -0.01130
Br1984     Br  0.84073056  0.61562681  0.05300216    -0.01200
Br1985     Br  0.67541043  0.51355679  0.03800919    -0.01160
Br1986     Br  0.68743681  0.56240809  0.08562913    -0.01140
C1987       C  0.77325584  0.96045042  0.04039187    -0.02270
C1988       C  0.74535272  0.95862825  0.02189473     0.07410
C1989       C  0.71702818  0.92764236  0.02239979    -0.02380
C1990       C  0.71915911  0.89801462  0.03905155    -0.02380
C1991       C  0.74458025  0.90185649  0.05799338     0.07550
C1992       C  0.77062425  0.93400311  0.05901476    -0.02580
Br1993     Br  0.80265487  0.94253073  0.08614774    -0.01130
Br1994     Br  0.81972931  0.99336669  0.03972979    -0.01200
Br1995     Br  0.68970531  0.85010928  0.03431922    -0.01160
Br1996     Br  0.67222336  0.92527577  0.00180764    -0.01140
C1997       C  0.77285340  0.54588999  0.96037311    -0.02270
C1998       C  0.74587748  0.55048213  0.97916153     0.07410
C1999       C  0.71741914  0.58161375  0.97766063    -0.02380
C2000       C  0.71751334  0.60781895  0.95897590    -0.02380
C2001       C  0.74267198  0.60136308  0.94014892     0.07550
C2002       C  0.76878815  0.56905410  0.94043778    -0.02580
Br2003     Br  0.79823266  0.55516488  0.91305082    -0.01130
Br2004     Br  0.82048554  0.51425812  0.96220785    -0.01200
Br2005     Br  0.68479984  0.65444139  0.95999196    -0.01160
Br2006     Br  0.67564412  0.58886324  0.99994888    -0.01140
C2007       C  0.72273567  0.93938182  0.94122034    -0.02270
C2008       C  0.75261250  0.91029719  0.93950587     0.07410
C2009       C  0.78426049  0.91088700  0.95530073    -0.02380
C2010       C  0.78169270  0.93386332  0.97520363    -0.02380
C2011       C  0.75001360  0.96122688  0.97824508     0.07550
C2012       C  0.72093729  0.96434020  0.96052609    -0.02580
Br2013     Br  0.67499096  0.99835127  0.96323093    -0.01130
Br2014     Br  0.68704597  0.94895812  0.91576320    -0.01200
Br2015     Br  0.82439018  0.92811431  0.99715759    -0.01160
Br2016     Br  0.83367827  0.88373185  0.94905152    -0.01140
C2017       C  0.53127596  0.67998875  0.73274572    -0.02270
C2018       C  0.99844501  0.70711583  0.73469751     0.07410
C2019       C  0.96349640  0.69608063  0.72195054    -0.02380
C2020       C  0.96241613  0.66060652  0.70997124    -0.02380
C2021       C  0.99811962  0.64374752  0.70206234     0.07550
C2022       C  0.53332317  0.65438589  0.71375561    -0.02580
Br2023     Br  0.58533182  0.63605963  0.70456285    -0.01130
Br2024     Br  0.56831622  0.66648104  0.75697594    -0.01200
Br2025     Br  0.91267658  0.63242414  0.71038997    -0.01160
Br2026     Br  0.91596674  0.72696558  0.71834080    -0.01140
C2027       C  0.99450849  0.81654578  0.69540993    -0.02270
C2028       C  0.99871459  0.85325195  0.70552503     0.07410
C2029       C  0.50737193  0.85586973  0.72900040    -0.02380
C2030       C  0.50706784  0.82197956  0.74311847    -0.02380
C2031       C  0.00197999  0.78333860  0.73338148     0.07550
C2032       C  0.00094778  0.78221213  0.70835280    -0.02580
Br2033     Br  0.01813412  0.73953093  0.68863627    -0.01130
Br2034     Br  0.98274754  0.81363878  0.66269010    -0.01200
Br2035     Br  0.50770056  0.83209258  0.77583176    -0.01160
Br2036     Br  0.51677017  0.90712115  0.74189547    -0.01140
C2037       C  0.55999991  0.76394334  0.80559736    -0.02270
C2038       C  0.59948430  0.76481528  0.79836670     0.07410
C2039       C  0.60760048  0.75995289  0.77488724    -0.02380
C2040       C  0.57593751  0.75609302  0.75889155    -0.02380
C2041       C  0.53612207  0.74752258  0.76676273     0.07550
C2042       C  0.53203008  0.74582518  0.79138694    -0.02580
Br2043     Br  0.51989859  0.69769802  0.80681175    -0.01130
Br2044     Br  0.54646577  0.77530311  0.83716843    -0.01200
Br2045     Br  0.59084317  0.75827695  0.72696124    -0.01160
Br2046     Br  0.66227838  0.75684221  0.76500517    -0.01140
C2047       C  0.94658197  0.71164759  0.77777461    -0.02270
C2048       C  0.95782938  0.74553297  0.76445249     0.07410
C2049       C  0.92870392  0.77712443  0.76524471    -0.02380
C2050       C  0.89944358  0.77845553  0.78286077    -0.02380
C2051       C  0.89777500  0.74910478  0.79983207     0.07550
C2052       C  0.92082730  0.71514762  0.79675629    -0.02580
Br2053     Br  0.91934982  0.67276718  0.81910780    -0.01130
Br2054     Br  0.95995177  0.65749475  0.77023487    -0.01200
Br2055     Br  0.85795725  0.81834238  0.78201420    -0.01160
Br2056     Br  0.91863229  0.81479477  0.74068207    -0.01140
C2057       C  0.82292749  0.97864188  0.73555685    -0.02270
C2058       C  0.78851806  0.50468404  0.73564337     0.07410
C2059       C  0.78698901  0.53277820  0.71690656    -0.02380
C2060       C  0.81608842  0.53287378  0.69940636    -0.02380
C2061       C  0.85043893  0.50982621  0.70156388     0.07550
C2062       C  0.85523230  0.98608298  0.72092901    -0.02580
Br2063     Br  0.90710289  0.96359784  0.72762870    -0.01130
Br2064     Br  0.82741783  0.92633586  0.74877272    -0.01200
Br2065     Br  0.80828120  0.56435264  0.67207342    -0.01160
Br2066     Br  0.74762844  0.57444578  0.71467800    -0.01140
C2067       C  0.64623383  0.52078303  0.72354053    -0.02270
C2068       C  0.65149833  0.50078919  0.70290716     0.07410
C2069       C  0.68662177  0.48008005  0.69902132    -0.02380
C2070       C  0.71489530  0.47623618  0.71663329    -0.02380
C2071       C  0.71385659  0.50111184  0.73682663     0.07550
C2072       C  0.67833958  0.52545048  0.73893231    -0.02580
Br2073     Br  0.67035908  0.57071830  0.75833091    -0.01130
Br2074     Br  0.59367655  0.54088111  0.73076107    -0.01200
Br2075     Br  0.75093063  0.93258259  0.71243626    -0.01160
Br2076     Br  0.69678806  0.45783651  0.66894124    -0.01140
C2077       C  0.72808481  0.53740603  0.79161916    -0.02270
C2078       C  0.75159782  0.53850953  0.77060727     0.07410
C2079       C  0.77601510  0.57315707  0.76805418    -0.02380
C2080       C  0.76739025  0.60705528  0.78074247    -0.02380
C2081       C  0.74529053  0.60463703  0.80095236     0.07550
C2082       C  0.72812879  0.56902040  0.80720450    -0.02580
Br2083     Br  0.70509177  0.56345006  0.83760071    -0.01130
Br2084     Br  0.69039270  0.49685881  0.79960531    -0.01200
Br2085     Br  0.78749743  0.65736088  0.77082074    -0.01160
Br2086     Br  0.82880757  0.57621674  0.75442551    -0.01140
C2087       C  0.78367136  0.96340932  0.78762417    -0.02270
C2088       C  0.75481815  0.96457089  0.76910135     0.07410
C2089       C  0.72767042  0.93167728  0.76811440    -0.02380
C2090       C  0.73429988  0.89855513  0.78184784    -0.02380
C2091       C  0.75892028  0.90067683  0.80104639     0.07550
C2092       C  0.78355404  0.93313316  0.80405679    -0.02580
Br2093     Br  0.81680106  0.93696259  0.83120711    -0.01130
Br2094     Br  0.82655620  0.00053904  0.79108083    -0.01200
Br2095     Br  0.70897395  0.84942814  0.77447198    -0.01160
Br2096     Br  0.67429092  0.93085112  0.75511094    -0.01140
C2097       C  0.61468683  0.72249725  0.03356365    -0.02270
C2098       C  0.60364370  0.73759752  0.05526433     0.07410
C2099       C  0.56286420  0.74024426  0.06047102    -0.02380
C2100       C  0.53466832  0.73011179  0.04370124    -0.02380
C2101       C  0.54595409  0.73057636  0.02033501     0.07550
C2102       C  0.58545000  0.71782195  0.01628697    -0.02580
Br2103     Br  0.59763462  0.68911103  0.98877801    -0.01130
Br2104     Br  0.66940847  0.70955579  0.02722898    -0.01200
Br2105     Br  0.50053675  0.68814550  0.05346773    -0.01160
Br2106     Br  0.54525978  0.74990053  0.09144281    -0.01140
C2107       C  0.92095867  0.72180637  0.02554899    -0.02270
C2108       C  0.95450198  0.74689145  0.02359394     0.07410
C2109       C  0.95930821  0.77643176  0.04061559    -0.02380
C2110       C  0.93389496  0.77762969  0.05991785    -0.02380
C2111       C  0.89955856  0.75417756  0.06049004     0.07550
C2112       C  0.89177713  0.72899644  0.04217206    -0.02580
Br2113     Br  0.83828478  0.71083176  0.03720628    -0.01130
Br2114     Br  0.91467031  0.67540223  0.00718967    -0.01200
Br2115     Br  0.94623540  0.81164224  0.08534080    -0.01160
Br2116     Br  0.99781583  0.81771905  0.03704886    -0.01140
C2117       C  0.53062829  0.76201570  0.95699103    -0.02270
C2118       C  0.54270929  0.76616190  0.98009533     0.07410
C2119       C  0.58065472  0.78366181  0.98290032    -0.02380
C2120       C  0.60912236  0.78137229  0.96495290    -0.02380
C2121       C  0.59924403  0.76240038  0.94416439     0.07550
C2122       C  0.55925476  0.75243477  0.94035465    -0.02580
Br2123     Br  0.54151170  0.73440207  0.91076402    -0.01130
Br2124     Br  0.49460847  0.80140454  0.94546205    -0.01200
Br2125     Br  0.66197159  0.80152007  0.96945261    -0.01160
Br2126     Br  0.59258714  0.81316939  0.01015653    -0.01140
C2127       C  0.91987976  0.77441894  0.97941613    -0.02270
C2128       C  0.95248368  0.74794011  0.98046257     0.07410
C2129       C  0.95457121  0.71757673  0.96374919    -0.02380
C2130       C  0.92712604  0.71678864  0.94533630    -0.02380
C2131       C  0.89427346  0.74266887  0.94526087     0.07550
C2132       C  0.88911722  0.76845039  0.96370672    -0.02580
Br2133     Br  0.83723826  0.79010246  0.97009127    -0.01130
Br2134     Br  0.91743781  0.82129641  0.99772099    -0.01200
Br2135     Br  0.93486560  0.68025819  0.92050312    -0.01160
Br2136     Br  0.99316758  0.67567012  0.96647499    -0.01140
C2137       C  0.79126440  0.53474373  0.28239078    -0.02270
C2138       C  0.78749409  0.50358809  0.26562112     0.07410
C2139       C  0.82115288  0.97714703  0.26400518    -0.02380
C2140       C  0.85200292  0.97815948  0.28063141    -0.02380
C2141       C  0.85146702  0.50580444  0.29843748     0.07550
C2142       C  0.82116907  0.53399806  0.29926227    -0.02580
Br2143     Br  0.81480956  0.56642126  0.32657678    -0.01130
Br2144     Br  0.75434196  0.57795468  0.28567788    -0.01200
Br2145     Br  0.89687310  0.94256843  0.27844395    -0.01160
Br2146     Br  0.83399397  0.94662614  0.23679615    -0.01140
C2147       C  0.67158993  0.48733961  0.25886300    -0.02270
C2148       C  0.71153106  0.49407308  0.26726742     0.07410
C2149       C  0.71521176  0.99078259  0.29229948    -0.02380
C2150       C  0.68201271  0.99634223  0.30651134    -0.02380
C2151       C  0.64388450  0.49466588  0.29736350     0.07550
C2152       C  0.63853889  0.48820304  0.27393396    -0.02580
Br2153     Br  0.58463321  0.48550102  0.26244566    -0.01130
Br2154     Br  0.65754438  0.47895368  0.22719785    -0.01200
Br2155     Br  0.68840075  0.00404334  0.33947592    -0.01160
Br2156     Br  0.75874598  0.96754751  0.31008285    -0.01140
C2157       C  0.78429126  0.55481573  0.22417416    -0.02270
C2158       C  0.74925034  0.54380446  0.23721892     0.07410
C2159       C  0.71705914  0.57242702  0.23611908    -0.02380
C2160       C  0.71918355  0.60500340  0.22082159    -0.02380
C2161       C  0.75038005  0.60825931  0.20485885     0.07550
C2162       C  0.78208005  0.58177204  0.20615663    -0.02580
Br2163     Br  0.81914280  0.57507184  0.18081997    -0.01130
Br2164     Br  0.83932790  0.54432615  0.23171384    -0.01200
Br2165     Br  0.67926325  0.64615028  0.22158047    -0.01160
Br2166     Br  0.67091350  0.57401413  0.25591444    -0.01140
C2167       C  0.74841635  0.94315297  0.19074685    -0.02270
C2168       C  0.74460329  0.90470011  0.19820471     0.07410
C2169       C  0.74257322  0.89657937  0.22158201    -0.02380
C2170       C  0.74549941  0.92699000  0.23794778    -0.02380
C2171       C  0.74755777  0.96782535  0.23125967     0.07550
C2172       C  0.74479461  0.97436294  0.20645738    -0.02580
Br2173     Br  0.72074192  0.01896237  0.19099677    -0.01130
Br2174     Br  0.75500617  0.95265645  0.15800537    -0.01200
Br2175     Br  0.74843865  0.90843295  0.26890086    -0.01160
Br2176     Br  0.73797111  0.84225407  0.23078958    -0.01140
loop_ 
_geom_bond_atom_site_label_1 
_geom_bond_atom_site_label_2 
_geom_bond_distance 
_geom_bond_site_symmetry_2 
_ccdc_geom_bond_type 
C1          C539   1.615       .  S
C1         C1050   1.589       .  S
C1         C1060   1.617       .  S
C1         C1070   1.613       .  S
C2          C476   1.516       .  S
C2          C496   1.509   1_554  S
C2         C1091   1.398       .  D
C3          C469   1.550       .  S
C3          C486   1.553   1_554  S
C3         C1090   1.398   1_455  D
C4          C426   1.599       .  S
C4          C439   1.600       .  S
C4          C446   1.603       .  S
C4         C1000   1.587   1_545  S
C5          C409   1.607   1_655  S
C5         C1474   1.583       .  S
C5         C1487   1.606   1_655  S
C5         C1504   1.617       .  S
C6          C356   1.529       .  S
C6          C379   1.520   1_554  S
C6          C551   1.401       .  D
C7          C349   1.523       .  S
C7          C366   1.531   1_554  S
C7          C550   1.401   1_545  D
C8           N26   1.351       .  A
C8           C45   1.464       .  S
C8          C376   1.492       .  S
N9           N26   1.322       .  A
N9           N31   1.318       .  A
N9          Co46   2.082       .  S
C10          N35   1.342       .  A
C10          C48   1.462       .  S
C10          H55   1.081       .  S
H11          C52   1.081       .  S
C12          N36   1.336       .  A
C12          C16   1.454       .  S
C12          H41   1.081       .  S
Co13         N31   2.076       .  S
Co13         N21   2.089       .  S
Co13         N53   2.082       .  S
Co13         N29   2.089       .  S
Co13        Cl57   2.444       .  S
N14          C52   1.346       .  A
N14          N21   1.322       .  A
N14         Co15   2.107       .  S
Co15         N18   2.099       .  S
Co15         N35   2.095       .  S
Co15         N22   2.089       .  S
Co15        Cl57   2.461       .  S
C16          N54   1.355       .  A
C16         C369   1.484       .  S
N17          N24   1.320       .  A
N17          N47   1.327       .  A
N17         Co50   2.089       .  S
N18          N36   1.320       .  A
N18          N54   1.327       .  A
N19          C48   1.351       .  A
N19          N29   1.329       .  A
H20          C45   1.080       .  S
N21          N42   1.326       .  A
N22          N40   1.320       .  A
N22          N27   1.326       .  A
C23          N27   1.352       .  A
C23          C51   1.453       .  S
C23         C449   1.473       .  S
N24          C39   1.337       .  A
N24         Co46   2.080       .  S
C25          N53   1.337       .  A
C25          C28   1.459       .  S
C25          H59   1.081       .  S
C28          N49   1.345       .  A
C28         C459   1.471       .  S
N29          N35   1.319       .  A
N30          C56   1.339       .  A
N30          N32   1.314       .  A
N30         Co46   2.068       .  S
N31          C45   1.339       .  A
N32          N60   1.321       .  A
N32         Co50   2.079       .  S
H33          C56   1.081       .  S
H34          C51   1.081       .  S
N36         Co50   2.070       .  S
N37          N49   1.321       .  A
N37          N53   1.320       .  A
N37         Co46   2.065       .  S
C38          N42   1.349       .  A
C38          C52   1.466       .  S
C38         C489   1.485       .  S
C39          C58   1.461       .  S
C39          H43   1.081       .  S
N40          C51   1.335       .  A
N40         Co50   2.070       .  S
C44          N60   1.351       .  A
C44          C56   1.464       .  S
C44         C419   1.494       .  S
Co46        Cl57   2.460       .  S
N47          C58   1.350       .  A
C48         C406   1.482       .  S
Co50        Cl57   2.435       .  S
C58         C499   1.482       .  S
C61          N79   1.348       .  A
C61          C98   1.458       .  S
C61         C326   1.469       .  S
N62          N79   1.323       .  A
N62          N84   1.319       .  A
N62         Co99   2.078       .  S
C63          N88   1.335       .  A
C63         C101   1.470       .  S
C63         H108   1.076       .  S
H64         C105   1.081       .  S
C65          N89   1.343       .  A
C65          C69   1.467       .  S
C65          H94   1.081       .  S
Co66         N84   2.085       .  S
Co66         N74   2.080       .  S
Co66        N106   2.072       .  S
Co66         N82   2.092       .  S
Co66       Cl110   2.458       .  S
N67         C105   1.335       .  A
N67          N74   1.316       .  A
N67         Co68   2.075       .  S
Co68         N71   2.059       .  S
Co68         N88   2.078       .  S
Co68         N75   2.107       .  S
Co68       Cl110   2.429       .  S
C69         N107   1.343       .  A
C69         C336   1.481       .  S
N70          N77   1.321       .  A
N70         N100   1.322       .  A
N70        Co103   2.063       .  S
N71          N89   1.315       .  A
N71         N107   1.316       .  A
N72         C101   1.356       .  A
N72          N82   1.326       .  A
H73          C98   1.080       .  S
N74          N95   1.326       .  A
N75          N93   1.320       .  A
N75          N80   1.326       .  A
C76          N80   1.355       .  A
C76         C104   1.453       .  S
C76         C479   1.477       .  S
N77          C92   1.345       .  A
N77         Co99   2.106       .  S
C78         N106   1.338       .  A
C78          C81   1.451       .  S
C78         H112   1.081       .  S
C81         N102   1.358       .  A
C81         C466   1.482       .  S
N82          N88   1.316       .  A
N83         C109   1.337       .  A
N83          N85   1.320       .  A
N83         Co99   2.079       .  S
N84          C98   1.342       .  A
N85         N113   1.324       .  A
N85        Co103   2.083       .  S
H86         C109   1.081       .  S
H87         C104   1.081       .  S
N89        Co103   2.077       .  S
N90         N102   1.331       .  A
N90         N106   1.322       .  A
N90         Co99   2.123       .  S
C91          N95   1.352       .  A
C91         C105   1.460       .  S
C91         C529   1.486       .  S
C92         C111   1.465       .  S
C92          H96   1.081       .  S
N93         C104   1.338       .  A
N93        Co103   2.063       .  S
C97         N113   1.350       .  A
C97         C109   1.461       .  S
C97         C359   1.483       .  S
Co99       Cl110   2.448       .  S
N100        C111   1.343       .  A
C101        C346   1.505       .  S
Co103      Cl110   2.458       .  S
C111        C536   1.474       .  S
C114        N676   1.347   1_545  A
C114        C151   1.457       .  S
C114        C436   1.472       .  S
N115        N132   1.322       .  A
N115        N681   1.318       .  A
N115       Co152   2.072       .  S
C116        N141   1.341       .  A
C116        C154   1.464       .  S
C116        H161   1.081       .  S
H117        C158   1.074       .  S
C118        N142   1.335       .  A
C118        C666   1.457       .  S
C118        H147   1.081       .  S
Co119       N137   2.078       .  S
Co119       N127   2.090       .  S
Co119       N159   2.103       .  S
Co119       N135   2.104       .  S
Co119     Cl1251   2.459   1_545  S
N120        C158   1.330       .  A
N120       N1215   1.315       .  A
N120       Co121   2.066       .  S
Co121       N124   2.088       .  S
Co121       N141   2.085       .  S
Co121       N128   2.079       .  S
Co121      Cl163   2.449   1_545  S
C122        N160   1.351       .  A
C122        C429   1.480       .  S
C122        C662   1.457   1_545  S
N123        N153   1.327       .  A
N123       N1218   1.318       .  A
N123       Co156   2.099       .  S
N124        N160   1.326       .  A
N124        N686   1.319   1_545  A
N125       C1242   1.355       .  A
N125        N135   1.327       .  A
H126        C151   1.080       .  S
N127        N148   1.326       .  A
N127       N1208   1.315   1_455  A
N128        N133   1.326       .  A
N128        N690   1.323   1_545  A
C129        N133   1.347   1_565  A
C129        C296   1.480       .  S
C129        C701   1.463       .  S
N130        C145   1.339       .  A
N130       N1211   1.318   1_455  A
N130       Co152   2.077       .  S
C131        N159   1.341       .  A
C131        C134   1.465   1_545  S
C131        H165   1.081       .  S
N132        C658   1.347       .  A
C134        N699   1.346       .  A
C134        C289   1.478       .  S
N135       N1229   1.320   1_455  A
N136        C162   1.343       .  A
N136       N1226   1.318   1_455  A
N136       Co152   2.090       .  S
N137        C151   1.340       .  A
N137        N659   1.318   1_545  A
N138        N166   1.324       .  A
N138       N1224   1.318       .  A
N138       Co156   2.094       .  S
H139        C162   1.080       .  S
H140        C157   1.080       .  S
N141       N1223   1.320       .  A
N142        N668   1.319       .  A
N142       Co156   2.071       .  S
N143        N155   1.326       .  A
N143        N703   1.323       .  A
N143       Co152   2.078       .  S
C144       N1236   1.356       .  A
C144        C158   1.466       .  S
C144        C389   1.501       .  S
C145       C1252   1.457   1_455  S
C145        H149   1.081       .  S
N146        C157   1.341       .  A
N146        N672   1.323       .  A
N146       Co156   2.103       .  S
N148       C1232   1.356   1_455  A
C150        N166   1.354       .  A
C150        C316   1.505       .  S
C150       C1250   1.469       .  S
Co152     Cl1795   2.447       .  S
N153        C164   1.356       .  A
C154       N1213   1.355       .  A
C154        C306   1.499       .  S
N155        C678   1.346       .  A
Co156      Cl707   2.459       .  S
C157        C673   1.463       .  S
N159        N687   1.323   1_545  A
C162       C1238   1.469       .  S
Cl163     Co1207   2.459   1_565  S
Cl163     Co1784   2.447       .  S
Cl163      Co700   2.459       .  S
C164        C396   1.480       .  S
C164       C1233   1.457       .  S
C167       N1273   1.345       .  A
C167        C204   1.457       .  S
C167        C226   1.466       .  S
N168        N185   1.321       .  A
N168       N1278   1.317   1_455  A
N168       Co205   2.068       .  S
C169        N194   1.346       .  A
C169        C207   1.468       .  S
C169        H214   1.080       .  S
H170        C211   1.076       .  S
C171        N195   1.337       .  A
C171       C1263   1.472       .  S
C171        H200   1.073       .  S
Co172       N190   2.075       .  S
Co172       N180   2.073       .  S
Co172       N212   2.090       .  S
Co172       N188   2.070       .  S
Co172      Cl760   2.460       .  S
N173        C211   1.334       .  A
N173        N724   1.318   1_545  A
N173       Co174   2.079       .  S
Co174       N177   2.092       .  S
Co174       N194   2.107       .  S
Co174       N181   2.097       .  S
Co174      Cl216   2.439       .  S
C175        N213   1.358       .  A
C175        C239   1.513       .  S
C175       C1259   1.472       .  S
N176        N206   1.322       .  A
N176        N727   1.319   1_545  A
N176       Co209   2.076       .  S
N177        N213   1.324       .  A
N177       N1283   1.312       .  A
N178        C751   1.345       .  A
N178        N188   1.321       .  A
H179        C204   1.081       .  S
N180        N201   1.325       .  A
N180        N717   1.318       .  A
N181        N186   1.322       .  A
N181       N1287   1.320       .  A
C182        N186   1.352       .  A
C182        C246   1.507       .  S
C182       C1298   1.475       .  S
N183        C198   1.339       .  A
N183        N720   1.319       .  A
N183       Co205   2.078       .  S
C184        N212   1.343       .  A
C184        C187   1.465       .  S
C184        H218   1.081       .  S
N185       C1255   1.345   1_455  A
C187       N1296   1.351       .  A
C187        C256   1.490       .  S
N188        N738   1.321       .  A
N189        C215   1.328       .  A
N189        N735   1.315       .  A
N189       Co205   2.064       .  S
N190        C204   1.342       .  A
N190       N1256   1.317       .  A
N191        N219   1.326       .  A
N191        N733   1.315   1_545  A
N191       Co209   2.092       .  S
H192        C215   1.071       .  S
H193        C210   1.080       .  S
N194        N732   1.321   1_545  A
N195       N1265   1.312   1_455  A
N195       Co209   2.071       .  S
N196        N208   1.325       .  A
N196       N1300   1.319   1_455  A
N196       Co205   2.090       .  S
C197        N745   1.349   1_545  A
C197        C211   1.458       .  S
C197        C509   1.480       .  S
C198        C761   1.458       .  S
C198        H202   1.081       .  S
N199        C210   1.347       .  A
N199       N1269   1.320   1_455  A
N199       Co209   2.100       .  S
N201        C741   1.350       .  A
C203        N219   1.358   1_565  A
C203        C266   1.504       .  S
C203        C759   1.465       .  S
Co205     Cl1848   2.434   1_455  S
N206        C217   1.347   1_545  A
C207        N722   1.345   1_545  A
C207        C279   1.485       .  S
N208       C1275   1.351   1_455  A
Co209     Cl1304   2.463   1_455  S
C210       C1270   1.475       .  S
N212       N1284   1.319       .  A
C215        C747   1.465       .  S
Cl216      Co716   2.460   1_545  S
Cl216     Co1837   2.434   1_545  S
Cl216     Co1297   2.463       .  S
C217        C519   1.465       .  S
C217        C742   1.458       .  S
C220        C259   1.533       .  S
C220        C319   1.532       .  S
C220        C221   1.406       .  D
C221        C249   1.531       .  S
C221        C309   1.533       .  S
C222        C276   1.530       .  S
C222        C299   1.524       .  S
C222        C223   1.402       .  D
C223        C269   1.508       .  S
C223        C286   1.534       .  S
C224        C329   1.597   1_655  S
C224       C1317   1.606   1_655  S
C224       C1324   1.602   1_655  S
C224       C1427   1.603       .  S
C225        C230   1.415       .  A
C225       C1314   1.393   1_455  A
C225       Br232   1.937       .  S
C226        C227   1.391       .  A
C226       C1313   1.393       .  A
C227        C228   1.406       .  A
C227       Br234   1.940       .  S
C228        C229   1.452       .  A
C228       Br233   1.939       .  S
C229       C1312   1.606       .  S
C229       C1318   1.453       .  A
C230       C1317   1.453       .  A
C230       Br231   1.925       .  S
C235        C240   1.419       .  A
C235       C1324   1.450       .  A
C235       Br242   1.948       .  S
C236       C1312   1.602       .  S
C236        C237   1.444       .  A
C236       C1323   1.450       .  A
C237        C238   1.407       .  A
C237       Br244   1.930       .  S
C238        C239   1.409       .  A
C238       Br243   1.937       .  S
C239       C1328   1.419       .  A
C240       C1327   1.419       .  A
C240       Br241   1.933       .  S
C245        C250   1.423       .  A
C245       C1334   1.417       .  A
C245       Br252   1.931       .  S
C246        C247   1.408       .  A
C246       C1333   1.417       .  A
C247        C248   1.404       .  A
C247       Br254   1.932       .  S
C248       C1337   1.424       .  A
C248       Br253   1.930       .  S
C249        C250   1.427       .  A
C249       C1336   1.424   1_455  A
C250       Br251   1.932       .  S
C255        C256   1.409       .  A
C255        C260   1.414       .  A
C255       Br262   1.934       .  S
C256       C1345   1.406       .  A
C257        C258   1.411       .  A
C257       C1344   1.406   1_455  A
C257       Br264   1.938       .  S
C258        C259   1.430       .  A
C258       Br263   1.929       .  S
C259       C1348   1.428   1_455  A
C260       C1347   1.428       .  A
C260       Br261   1.929       .  S
C265        C266   1.422   1_545  A
C265        C270   1.416       .  A
C265       Br272   1.934       .  S
C266        C811   1.414       .  A
C267        C268   1.397       .  A
C267        C810   1.414       .  A
C267       Br274   1.932       .  S
C268        C269   1.413       .  A
C268       Br273   1.936       .  S
C269        C814   1.421       .  A
C270        C813   1.421   1_545  A
C270       Br271   1.934       .  S
C275        C276   1.427       .  A
C275        C280   1.408       .  A
C275       Br282   1.927       .  S
C276        C821   1.427       .  A
C277        C278   1.406       .  A
C277        C820   1.427   1_545  A
C277       Br284   1.932       .  S
C278        C279   1.403       .  A
C278       Br283   1.926       .  S
C279        C824   1.409   1_545  A
C280        C823   1.409       .  A
C280       Br281   1.935       .  S
C285        C290   1.401   1_545  A
C285        C830   1.439   1_545  A
C285       Br292   1.928       .  S
C286        C287   1.428       .  A
C286        C829   1.439       .  A
C287        C288   1.416       .  A
C287       Br294   1.929       .  S
C288        C833   1.406       .  A
C288       Br293   1.927       .  S
C289        C290   1.391       .  A
C289        C832   1.406       .  A
C290       Br291   1.937   1_565  S
C295        C300   1.418       .  A
C295        C840   1.410       .  A
C295       Br302   1.929       .  S
C296        C297   1.395       .  A
C296        C839   1.410   1_565  A
C297        C298   1.399       .  A
C297       Br304   1.933       .  S
C298        C843   1.429       .  A
C298       Br303   1.926       .  S
C299        C300   1.428       .  A
C299        C842   1.429       .  A
C300       Br301   1.932       .  S
C305        C310   1.411       .  A
C305       C1394   1.408       .  A
C305       Br312   1.931       .  S
C306        C307   1.413       .  A
C306       C1393   1.408       .  A
C307        C308   1.415       .  A
C307       Br314   1.935       .  S
C308       C1397   1.427       .  A
C308       Br313   1.931       .  S
C309        C310   1.428       .  A
C309       C1396   1.427   1_455  A
C310       Br311   1.931       .  S
C315        C316   1.411       .  A
C315        C320   1.409       .  A
C315       Br322   1.934       .  S
C316       C1405   1.415       .  A
C317        C318   1.418       .  A
C317       C1404   1.415   1_455  A
C317       Br324   1.933       .  S
C318        C319   1.425       .  A
C318       Br323   1.931       .  S
C319       C1408   1.427   1_455  A
C320       C1407   1.427       .  A
C320       Br321   1.932       .  S
C325        C326   1.392       .  A
C325        C330   1.399       .  A
C325       Br332   1.940       .  S
C326        C327   1.401       .  A
C327        C328   1.419       .  A
C327       Br334   1.932       .  S
C328        C329   1.444       .  A
C328       Br333   1.930       .  S
C329        C330   1.451       .  A
C330       Br331   1.949   1_455  S
C335        C336   1.402       .  A
C335        C340   1.420       .  A
C335       Br342   1.944       .  S
C336        C337   1.403       .  A
C337        C338   1.405       .  A
C337       Br344   1.952       .  S
C338        C339   1.448       .  A
C338       Br343   1.930       .  S
C339       C1312   1.603       .  S
C339        C340   1.457       .  A
C340       Br341   1.940       .  S
C345        C346   1.414       .  A
C345        C350   1.406       .  A
C345       Br352   1.931       .  S
C346        C347   1.418       .  A
C347        C348   1.418       .  A
C347       Br354   1.935       .  S
C348        C349   1.424       .  A
C348       Br353   1.935       .  S
C349        C350   1.423       .  A
C350       Br351   1.933       .  S
C355        C356   1.430       .  A
C355        C360   1.414       .  A
C355       Br362   1.931       .  S
C356        C357   1.429       .  A
C357        C358   1.403       .  A
C357       Br364   1.928       .  S
C358        C359   1.402       .  A
C358       Br363   1.939       .  S
C359        C360   1.410       .  A
C360       Br361   1.935       .  S
C365        C366   1.430       .  A
C365        C370   1.410       .  A
C365       Br372   1.931       .  S
C366        C367   1.430       .  A
C367        C368   1.408       .  A
C367       Br374   1.928       .  S
C368        C369   1.402       .  A
C368       Br373   1.933       .  S
C369        C370   1.408       .  A
C370       Br371   1.935       .  S
C375        C376   1.414       .  A
C375        C380   1.413       .  A
C375       Br382   1.934       .  S
C376        C377   1.407       .  A
C377        C378   1.403       .  A
C377       Br384   1.935       .  S
C378        C379   1.426       .  A
C378       Br383   1.932       .  S
C379        C380   1.425       .  A
C380       Br381   1.936       .  S
C385        C390   1.413       .  A
C385       C1474   1.443   1_455  A
C385       Br392   1.936       .  S
C386       C1093   1.583       .  S
C386        C387   1.442       .  A
C386       C1473   1.443       .  A
C387        C388   1.401       .  A
C387       Br394   1.923       .  S
C388        C389   1.407       .  A
C388       Br393   1.935       .  S
C389       C1478   1.415       .  A
C390       C1477   1.415   1_455  A
C390       Br391   1.931       .  S
C395        C396   1.395       .  A
C395        C400   1.410       .  A
C395       Br402   1.948       .  S
C396       C1485   1.400       .  A
C397        C398   1.420       .  A
C397       C1484   1.400   1_455  A
C397       Br404   1.935       .  S
C398       C1487   1.449       .  A
C398       Br403   1.936       .  S
C399       C1093   1.606       .  S
C399        C400   1.458       .  A
C399       C1486   1.449       .  A
C400       Br401   1.944       .  S
C405        C406   1.394       .  A
C405        C410   1.400       .  A
C405       Br412   1.933       .  S
C406        C407   1.404       .  A
C407        C408   1.421       .  A
C407       Br414   1.930       .  S
C408        C409   1.447       .  A
C408       Br413   1.927       .  S
C409        C410   1.441       .  A
C410       Br411   1.919       .  S
C415        C416   1.445       .  A
C415        C420   1.409       .  A
C415       Br422   1.954       .  S
C416       C1093   1.617       .  S
C416        C417   1.455       .  A
C417        C418   1.422       .  A
C417       Br424   1.951       .  S
C418        C419   1.408       .  A
C418       Br423   1.947       .  S
C419        C420   1.405       .  A
C420       Br421   1.947       .  S
C425        C430   1.405       .  A
C425        C970   1.455       .  A
C425       Br432   1.951       .  S
C426        C427   1.453       .  A
C426        C969   1.455   1_545  A
C427        C428   1.413       .  A
C427       Br434   1.944       .  S
C428        C429   1.401       .  A
C428       Br433   1.937       .  S
C429        C974   1.396   1_545  A
C430        C973   1.396       .  A
C430       Br431   1.942       .  S
C435        C436   1.394       .  A
C435        C440   1.413       .  A
C435       Br442   1.940       .  S
C436        C437   1.393   1_545  A
C437        C438   1.404       .  A
C437       Br444   1.940       .  S
C438        C439   1.452   1_565  A
C438       Br987   1.933       .  S
C439        C440   1.458       .  A
C440       Br441   1.935       .  S
Br443       C982   1.933       .  S
C445        C446   1.457       .  A
C445        C450   1.412       .  A
C445       Br452   1.939   1_545  S
C446        C447   1.452       .  A
C447        C448   1.404       .  A
C447       Br454   1.948       .  S
C448        C449   1.394       .  A
C448       Br453   1.939       .  S
C449        C450   1.398       .  A
C450       Br451   1.941       .  S
C455        C456   1.451       .  A
C455        C460   1.408       .  A
C455       Br462   1.937       .  S
C456        C548   1.587       .  S
C456        C457   1.454       .  A
C457        C458   1.402       .  A
C457       Br464   1.949       .  S
C458        C459   1.393       .  A
C458       Br463   1.936       .  S
C459        C460   1.400       .  A
C460       Br461   1.941       .  S
C465        C466   1.414       .  A
C465        C470   1.416       .  A
C465       Br472   1.927       .  S
C466        C467   1.407       .  A
C467        C468   1.406       .  A
C467       Br474   1.926       .  S
C468        C469   1.412       .  A
C468       Br473   1.927       .  S
C469        C470   1.416       .  A
C470       Br471   1.923   1_554  S
C475        C476   1.425       .  A
C475        C480   1.399       .  A
C475       Br482   1.927       .  S
C476        C477   1.426       .  A
C477        C478   1.412       .  A
C477       Br484   1.932       .  S
C478        C479   1.410       .  A
C478       Br483   1.930       .  S
C479        C480   1.397       .  A
C480       Br481   1.928       .  S
C485        C486   1.413       .  A
C485        C490   1.404       .  A
C485       Br492   1.927   1_455  S
C486        C487   1.422       .  A
C487        C488   1.419       .  A
C487       Br494   1.925   1_556  S
C488        C489   1.414       .  A
C488       Br493   1.928       .  S
C489        C490   1.407       .  A
C490       Br491   1.926       .  S
C495        C496   1.420       .  A
C495        C500   1.397       .  A
C495       Br502   1.927       .  S
C496        C497   1.425       .  A
C497        C498   1.415       .  A
C497       Br504   1.935       .  S
C498        C499   1.412       .  A
C498       Br503   1.929       .  S
C499        C500   1.401       .  A
C500       Br501   1.928       .  S
C505        C506   1.452       .  A
C505        C510   1.406       .  A
C505       Br512   1.935       .  S
C506        C545   1.588       .  S
C506       C1051   1.448   1_545  A
C507        C508   1.420       .  A
C507       C1050   1.449       .  A
C507       Br514   1.946       .  S
C508       C1053   1.406       .  A
C508       Br513   1.938       .  S
C509        C510   1.400       .  A
C509       C1052   1.406   1_545  A
C510       Br511   1.951       .  S
C515        C516   1.449       .  A
C515        C520   1.416       .  A
C515       Br522   1.925       .  S
C516        C545   1.617   1_565  S
C516       C1061   1.465       .  A
C517        C518   1.402       .  A
C517       C1060   1.465       .  A
C517       Br524   1.958       .  S
C518       C1063   1.389       .  A
C518       Br523   1.949       .  S
C519        C520   1.394       .  A
C519       C1062   1.389       .  A
C520       Br521   1.935       .  S
C525        C526   1.453       .  A
C525        C530   1.396       .  A
C525       Br532   1.935       .  S
C526        C545   1.614       .  S
C526        C527   1.457       .  A
C527        C528   1.427       .  A
C527       Br534   1.934       .  S
C528        C529   1.407       .  A
C528       Br533   1.940       .  S
C529        C530   1.398       .  A
C530       Br531   1.944       .  S
C535        C536   1.390       .  A
C535        C540   1.411       .  A
C535       Br542   1.946       .  S
C536        C537   1.390       .  A
C537        C538   1.415       .  A
C537       Br544   1.939       .  S
C538        C539   1.451       .  A
C538       Br543   1.912       .  S
C539        C540   1.463       .  A
C540       Br541   1.943       .  S
C545       C1083   1.615   1_545  S
C546       C1020   1.516       .  S
C546       C1040   1.509   1_554  S
C546       C1635   1.398       .  D
C547       C1013   1.550       .  S
C547       C1030   1.553   1_554  S
C547       C1634   1.398   1_455  D
C548        C970   1.599       .  S
C548        C983   1.600       .  S
C548        C990   1.603       .  S
C549       C2018   1.583       .  S
C549       C2031   1.606   1_655  S
C549        C953   1.607   1_655  S
C549       C2048   1.617       .  S
C550        C900   1.529       .  S
C550        C923   1.520   1_554  S
C551        C893   1.523       .  S
C551        C910   1.531   1_554  S
C552        N570   1.351       .  A
C552        C589   1.464       .  S
C552        C920   1.492       .  S
N553        N570   1.322       .  A
N553        N575   1.318       .  A
N553       Co590   2.082       .  S
C554        N579   1.342       .  A
C554        C592   1.462       .  S
C554        H599   1.081       .  S
H555        C596   1.081       .  S
C556        N580   1.336       .  A
C556        C560   1.454       .  S
C556        H585   1.081       .  S
Co557       N575   2.076       .  S
Co557       N565   2.089       .  S
Co557       N597   2.082       .  S
Co557       N573   2.089       .  S
Co557      Cl601   2.444       .  S
N558        C596   1.346       .  A
N558        N565   1.322       .  A
N558       Co559   2.107       .  S
Co559       N562   2.099       .  S
Co559       N579   2.095       .  S
Co559       N566   2.089       .  S
Co559      Cl601   2.461       .  S
C560        N598   1.355       .  A
C560        C913   1.484       .  S
N561        N568   1.320       .  A
N561        N591   1.327       .  A
N561       Co594   2.089       .  S
N562        N580   1.320       .  A
N562        N598   1.327       .  A
N563        C592   1.351       .  A
N563        N573   1.329       .  A
H564        C589   1.080       .  S
N565        N586   1.326       .  A
N566        N584   1.320       .  A
N566        N571   1.326       .  A
C567        N571   1.352       .  A
C567        C595   1.453       .  S
C567        C993   1.473       .  S
N568        C583   1.337       .  A
N568       Co590   2.080       .  S
C569        N597   1.337       .  A
C569        C572   1.459       .  S
C569        H603   1.081       .  S
C572        N593   1.345       .  A
C572       C1003   1.471       .  S
N573        N579   1.319       .  A
N574        C600   1.339       .  A
N574        N576   1.314       .  A
N574       Co590   2.068       .  S
N575        C589   1.339       .  A
N576        N604   1.321       .  A
N576       Co594   2.079       .  S
H577        C600   1.081       .  S
H578        C595   1.081       .  S
N580       Co594   2.070       .  S
N581        N593   1.321       .  A
N581        N597   1.320       .  A
N581       Co590   2.065       .  S
C582        N586   1.349       .  A
C582        C596   1.466       .  S
C582       C1033   1.485       .  S
C583        C602   1.461       .  S
C583        H587   1.081       .  S
N584        C595   1.335       .  A
N584       Co594   2.070       .  S
C588        N604   1.352       .  A
C588        C600   1.464       .  S
C588        C963   1.494       .  S
Co590      Cl601   2.460       .  S
N591        C602   1.350       .  A
C592        C950   1.482       .  S
Co594      Cl601   2.435       .  S
C602       C1043   1.482       .  S
C605        N623   1.348       .  A
C605        C642   1.458       .  S
C605        C870   1.469       .  S
N606        N623   1.323       .  A
N606        N628   1.319       .  A
N606       Co643   2.078       .  S
C607        N632   1.335       .  A
C607        C645   1.470       .  S
C607        H652   1.076       .  S
H608        C649   1.081       .  S
C609        N633   1.343       .  A
C609        C613   1.467       .  S
C609        H638   1.081       .  S
Co610       N628   2.085       .  S
Co610       N618   2.080       .  S
Co610       N650   2.072       .  S
Co610       N626   2.092       .  S
Co610      Cl654   2.458       .  S
N611        C649   1.335       .  A
N611        N618   1.316       .  A
N611       Co612   2.075       .  S
Co612       N615   2.059       .  S
Co612       N632   2.078       .  S
Co612       N619   2.107       .  S
Co612      Cl654   2.429       .  S
C613        N651   1.343       .  A
C613        C880   1.481       .  S
N614        N621   1.321       .  A
N614        N644   1.322       .  A
N614       Co647   2.063       .  S
N615        N633   1.315       .  A
N615        N651   1.316       .  A
N616        C645   1.356       .  A
N616        N626   1.326       .  A
H617        C642   1.080       .  S
N618        N639   1.326       .  A
N619        N637   1.320       .  A
N619        N624   1.326       .  A
C620        N624   1.355       .  A
C620        C648   1.453       .  S
C620       C1023   1.478       .  S
N621        C636   1.345       .  A
N621       Co643   2.106       .  S
C622        N650   1.338       .  A
C622        C625   1.451       .  S
C622        H656   1.081       .  S
C625        N646   1.358       .  A
C625       C1010   1.482       .  S
N626        N632   1.316       .  A
N627        C653   1.337       .  A
N627        N629   1.320       .  A
N627       Co643   2.079       .  S
N628        C642   1.342       .  A
N629        N657   1.324       .  A
N629       Co647   2.083       .  S
H630        C653   1.081       .  S
H631        C648   1.081       .  S
N633       Co647   2.077       .  S
N634        N646   1.331       .  A
N634        N650   1.322       .  A
N634       Co643   2.123       .  S
C635        N639   1.352       .  A
C635        C649   1.460       .  S
C635       C1073   1.486       .  S
C636        C655   1.465       .  S
C636        H640   1.081       .  S
N637        C648   1.338       .  A
N637       Co647   2.063       .  S
C641        N657   1.350       .  A
C641        C653   1.461       .  S
C641        C903   1.483       .  S
Co643      Cl654   2.448       .  S
N644        C655   1.343       .  A
C645        C890   1.505       .  S
Co647      Cl654   2.458       .  S
C655       C1080   1.474       .  S
C658        C695   1.457       .  S
C658        C980   1.472       .  S
N659        N676   1.322       .  A
N659       Co696   2.072       .  S
C660        N685   1.341       .  A
C660        C698   1.464       .  S
C660        H705   1.081       .  S
H661        C702   1.074       .  S
C662        N686   1.335       .  A
C662        H691   1.081       .  S
Co663       N681   2.078       .  S
Co663       N671   2.090       .  S
Co663       N703   2.103       .  S
Co663       N679   2.104       .  S
Co663     Cl1795   2.459       .  S
N664        C702   1.330       .  A
N664       N1759   1.315       .  A
N664       Co665   2.066       .  S
Co665       N668   2.088       .  S
Co665       N685   2.085       .  S
Co665       N672   2.079       .  S
Co665      Cl707   2.449       .  S
C666        N704   1.351       .  A
C666        C973   1.480       .  S
N667       N1762   1.318       .  A
N667        N697   1.327       .  A
N667       Co700   2.099       .  S
N668        N704   1.326       .  A
N669       C1786   1.355       .  A
N669        N679   1.327       .  A
H670        C695   1.080       .  S
N671       N1752   1.315   1_455  A
N671        N692   1.326       .  A
N672        N677   1.326       .  A
C673        N677   1.347       .  A
C673        C840   1.480       .  S
N674        C689   1.339       .  A
N674       N1755   1.318   1_455  A
N674       Co696   2.077       .  S
C675        N703   1.340       .  A
C675        C678   1.465       .  S
C675        H709   1.081       .  S
C678        C833   1.478       .  S
N679       N1773   1.320   1_455  A
N680        C706   1.343       .  A
N680       N1770   1.318   1_455  A
N680       Co696   2.090       .  S
N681        C695   1.340       .  A
N682       N1768   1.318       .  A
N682        N710   1.324       .  A
N682       Co700   2.094       .  S
H683        C706   1.080       .  S
H684        C701   1.080       .  S
N685       N1767   1.320       .  A
N686       Co700   2.070       .  S
N687        N699   1.326       .  A
N687       Co696   2.078       .  S
C688       N1780   1.356       .  A
C688        C702   1.466       .  S
C688        C933   1.501       .  S
C689       C1796   1.457   1_455  S
C689        H693   1.081       .  S
N690        C701   1.341       .  A
N690       Co700   2.103       .  S
N692       C1776   1.356   1_455  A
C694        N710   1.354       .  A
C694       C1794   1.469       .  S
C694        C860   1.505       .  S
Co696     Cl1251   2.447       .  S
N697        C708   1.356       .  A
C698       N1757   1.355       .  A
C698        C850   1.499       .  S
C706       C1782   1.469       .  S
Cl707     Co1751   2.459       .  S
Cl707     Co1240   2.447       .  S
C708       C1777   1.457       .  S
C708        C940   1.480       .  S
C711       N1817   1.345       .  A
C711        C748   1.457       .  S
C711        C770   1.466       .  S
N712        N729   1.321       .  A
N712       N1822   1.317   1_455  A
N712       Co749   2.068       .  S
C713        N738   1.346       .  A
C713        C751   1.468       .  S
C713        H758   1.080       .  S
H714        C755   1.076       .  S
C715        N739   1.337       .  A
C715       C1807   1.472       .  S
C715        H744   1.073       .  S
Co716       N734   2.075       .  S
Co716       N724   2.073       .  S
Co716       N756   2.090       .  S
Co716       N732   2.070       .  S
N717        C755   1.334       .  A
N717       Co718   2.079       .  S
Co718       N721   2.092       .  S
Co718       N738   2.107       .  S
Co718       N725   2.098       .  S
Co718      Cl760   2.439       .  S
C719        N757   1.358       .  A
C719       C1803   1.472       .  S
C719        C783   1.513       .  S
N720        N750   1.322       .  A
N720       Co753   2.075       .  S
N721       N1827   1.312       .  A
N721        N757   1.324       .  A
N722        N732   1.321       .  A
H723        C748   1.081       .  S
N724        N745   1.325       .  A
N725       N1831   1.320       .  A
N725        N730   1.322       .  A
C726        N730   1.352       .  A
C726       C1842   1.474       .  S
C726        C790   1.507       .  S
N727        C742   1.339       .  A
N727       Co749   2.078       .  S
C728        N756   1.343       .  A
C728        C731   1.465       .  S
C728        H762   1.081       .  S
N729       C1799   1.345   1_455  A
C731       N1840   1.351       .  A
C731        C800   1.490       .  S
N733        C759   1.328       .  A
N733       Co749   2.064       .  S
N734        C748   1.342       .  A
N734       N1800   1.317       .  A
N735        N763   1.326       .  A
N735       Co753   2.092       .  S
H736        C759   1.071       .  S
H737        C754   1.080       .  S
N739       N1809   1.312   1_455  A
N739       Co753   2.072       .  S
N740        N752   1.325       .  A
N740       N1844   1.319   1_455  A
N740       Co749   2.090       .  S
C741        C755   1.458       .  S
C741       C1053   1.481       .  S
C742        H746   1.081       .  S
N743        C754   1.347       .  A
N743       N1813   1.320   1_455  A
N743       Co753   2.099       .  S
C747        N763   1.358       .  A
C747        C810   1.504       .  S
Co749     Cl1304   2.434   1_465  S
N750        C761   1.347       .  A
C751        C823   1.485       .  S
N752       C1819   1.351   1_455  A
Co753     Cl1848   2.463   1_455  S
C754       C1814   1.474       .  S
N756       N1828   1.319       .  A
Cl760     Co1293   2.434       .  S
Cl760     Co1841   2.463       .  S
C761       C1063   1.465       .  S
C764        C803   1.533       .  S
C764        C863   1.532       .  S
C764        C765   1.406       .  D
C765        C793   1.531       .  S
C765        C853   1.533       .  S
C766        C820   1.530       .  S
C766        C843   1.524       .  S
C766        C767   1.402       .  D
C767        C813   1.508       .  S
C767        C830   1.534       .  S
C768       C1861   1.606   1_655  S
C768       C1868   1.602   1_655  S
C768        C873   1.597   1_655  S
C768       C1971   1.603       .  S
C769       C1858   1.393   1_455  A
C769        C774   1.415       .  A
C769       Br776   1.937       .  S
C770       C1857   1.393       .  A
C770        C771   1.391       .  A
C771        C772   1.406       .  A
C771       Br778   1.940       .  S
C772        C773   1.452       .  A
C772       Br777   1.940       .  S
C773       C1856   1.606       .  S
C773       C1862   1.453       .  A
C774       C1861   1.453       .  A
C774       Br775   1.925       .  S
C779       C1868   1.451       .  A
C779        C784   1.419       .  A
C779       Br786   1.948       .  S
C780       C1856   1.602       .  S
C780       C1867   1.451       .  A
C780        C781   1.444       .  A
C781        C782   1.407       .  A
C781       Br788   1.930       .  S
C782        C783   1.409       .  A
C782       Br787   1.937       .  S
C783       C1872   1.419       .  A
C784       C1871   1.419       .  A
C784       Br785   1.933       .  S
C789       C1878   1.417       .  A
C789        C794   1.423       .  A
C789       Br796   1.931       .  S
C790       C1877   1.417       .  A
C790        C791   1.408       .  A
C791        C792   1.404       .  A
C791       Br798   1.932       .  S
C792       C1881   1.424       .  A
C792       Br797   1.930       .  S
C793       C1880   1.424   1_455  A
C793        C794   1.427       .  A
C794       Br795   1.932       .  S
C799        C800   1.409       .  A
C799        C804   1.414       .  A
C799       Br806   1.934       .  S
C800       C1889   1.406       .  A
C801       C1888   1.406   1_455  A
C801        C802   1.411       .  A
C801       Br808   1.939       .  S
C802        C803   1.430       .  A
C802       Br807   1.929       .  S
C803       C1892   1.428   1_455  A
C804       C1891   1.428       .  A
C804       Br805   1.929       .  S
C809        C810   1.422       .  A
C809        C814   1.416       .  A
C809       Br816   1.934       .  S
C811        C812   1.397       .  A
C811       Br818   1.932       .  S
C812        C813   1.413       .  A
C812       Br817   1.936       .  S
C814       Br815   1.934       .  S
C819        C820   1.427       .  A
C819        C824   1.408       .  A
C819       Br826   1.927       .  S
C821        C822   1.406       .  A
C821       Br828   1.932       .  S
C822        C823   1.403       .  A
C822       Br827   1.926       .  S
C824       Br825   1.935       .  S
C829        C834   1.400       .  A
C829       Br836   1.928       .  S
C830        C831   1.428       .  A
C831        C832   1.416       .  A
C831       Br838   1.929       .  S
C832       Br837   1.927       .  S
C833        C834   1.391       .  A
C834       Br835   1.937       .  S
C839        C844   1.418       .  A
C839       Br846   1.929       .  S
C840        C841   1.395       .  A
C841        C842   1.399       .  A
C841       Br848   1.933       .  S
C842       Br847   1.926       .  S
C843        C844   1.428   1_565  A
C844       Br845   1.932       .  S
C849       C1938   1.408       .  A
C849        C854   1.411       .  A
C849       Br856   1.931       .  S
C850       C1937   1.408       .  A
C850        C851   1.413       .  A
C851        C852   1.415       .  A
C851       Br858   1.935       .  S
C852       C1941   1.427       .  A
C852       Br857   1.931       .  S
C853       C1940   1.427   1_455  A
C853        C854   1.428       .  A
C854       Br855   1.931       .  S
C859        C860   1.411       .  A
C859        C864   1.409       .  A
C859       Br866   1.934       .  S
C860       C1949   1.415       .  A
C861       C1948   1.415   1_455  A
C861        C862   1.418       .  A
C861       Br868   1.933       .  S
C862        C863   1.425       .  A
C862       Br867   1.931       .  S
C863       C1952   1.427   1_455  A
C864       C1951   1.427       .  A
C864       Br865   1.932       .  S
C869        C870   1.392       .  A
C869        C874   1.399       .  A
C869       Br876   1.940       .  S
C870        C871   1.401       .  A
C871        C872   1.419       .  A
C871       Br878   1.932       .  S
C872        C873   1.444       .  A
C872       Br877   1.929       .  S
C873        C874   1.451       .  A
C874       Br875   1.949   1_455  S
C879        C880   1.402       .  A
C879        C884   1.420       .  A
C879       Br886   1.944       .  S
C880        C881   1.403       .  A
C881        C882   1.405       .  A
C881       Br888   1.952       .  S
C882        C883   1.448       .  A
C882       Br887   1.930       .  S
C883       C1856   1.603       .  S
C883        C884   1.457       .  A
C884       Br885   1.940       .  S
C889        C890   1.414       .  A
C889        C894   1.406       .  A
C889       Br896   1.931       .  S
C890        C891   1.418       .  A
C891        C892   1.418       .  A
C891       Br898   1.935       .  S
C892        C893   1.424       .  A
C892       Br897   1.935       .  S
C893        C894   1.423       .  A
C894       Br895   1.933       .  S
C899        C900   1.430       .  A
C899        C904   1.414       .  A
C899       Br906   1.931       .  S
C900        C901   1.429       .  A
C901        C902   1.403       .  A
C901       Br908   1.928       .  S
C902        C903   1.402       .  A
C902       Br907   1.939       .  S
C903        C904   1.410       .  A
C904       Br905   1.935       .  S
C909        C910   1.430       .  A
C909        C914   1.410       .  A
C909       Br916   1.931       .  S
C910        C911   1.430       .  A
C911        C912   1.408       .  A
C911       Br918   1.928       .  S
C912        C913   1.402       .  A
C912       Br917   1.933       .  S
C913        C914   1.408       .  A
C914       Br915   1.935       .  S
C919        C920   1.414       .  A
C919        C924   1.413       .  A
C919       Br926   1.934       .  S
C920        C921   1.407       .  A
C921        C922   1.403       .  A
C921       Br928   1.935       .  S
C922        C923   1.426       .  A
C922       Br927   1.932       .  S
C923        C924   1.425       .  A
C924       Br925   1.936       .  S
C929       C2018   1.443   1_455  A
C929        C934   1.413       .  A
C929       Br936   1.936       .  S
C930       C1637   1.583       .  S
C930       C2017   1.443       .  A
C930        C931   1.442       .  A
C931        C932   1.401       .  A
C931       Br938   1.923       .  S
C932        C933   1.407       .  A
C932       Br937   1.935       .  S
C933       C2022   1.415       .  A
C934       C2021   1.415   1_455  A
C934       Br935   1.931       .  S
C939        C940   1.395       .  A
C939        C944   1.410       .  A
C939       Br946   1.948       .  S
C940       C2029   1.400       .  A
C941       C2028   1.400   1_455  A
C941        C942   1.420       .  A
C941       Br948   1.935       .  S
C942       C2031   1.449       .  A
C942       Br947   1.936       .  S
C943       C1637   1.606       .  S
C943       C2030   1.449       .  A
C943        C944   1.458       .  A
C944       Br945   1.944       .  S
C949        C950   1.394       .  A
C949        C954   1.400       .  A
C949       Br956   1.933       .  S
C950        C951   1.404       .  A
C951        C952   1.421       .  A
C951       Br958   1.930       .  S
C952        C953   1.447       .  A
C952       Br957   1.927       .  S
C953        C954   1.441       .  A
C954       Br955   1.919       .  S
C959        C960   1.445       .  A
C959        C964   1.409       .  A
C959       Br966   1.954       .  S
C960       C1637   1.617       .  S
C960        C961   1.455       .  A
C961        C962   1.422       .  A
C961       Br968   1.951       .  S
C962        C963   1.408       .  A
C962       Br967   1.947       .  S
C963        C964   1.405       .  A
C964       Br965   1.947       .  S
C969        C974   1.405       .  A
C969       Br976   1.951       .  S
C970        C971   1.453       .  A
C971        C972   1.413       .  A
C971       Br978   1.944       .  S
C972        C973   1.401       .  A
C972       Br977   1.937       .  S
C974       Br975   1.942       .  S
C979        C980   1.394       .  A
C979        C984   1.413       .  A
C979       Br986   1.940       .  S
C980        C981   1.393       .  A
C981        C982   1.404       .  A
C981       Br988   1.940       .  S
C982        C983   1.452       .  A
C983        C984   1.458       .  A
C984       Br985   1.935       .  S
C989        C990   1.457       .  A
C989        C994   1.412       .  A
C989       Br996   1.939       .  S
C990        C991   1.452       .  A
C991        C992   1.404       .  A
C991       Br998   1.948       .  S
C992        C993   1.394       .  A
C992       Br997   1.939       .  S
C993        C994   1.398       .  A
C994       Br995   1.941       .  S
C999       C1000   1.451       .  A
C999       C1004   1.408       .  A
C999      Br1006   1.937   1_565  S
C1000      C1001   1.454       .  A
C1001      C1002   1.402       .  A
C1001     Br1008   1.949       .  S
C1002      C1003   1.393       .  A
C1002     Br1007   1.936       .  S
C1003      C1004   1.400       .  A
C1004     Br1005   1.941       .  S
C1009      C1010   1.414       .  A
C1009      C1014   1.416       .  A
C1009     Br1016   1.927       .  S
C1010      C1011   1.407       .  A
C1011      C1012   1.406       .  A
C1011     Br1018   1.926       .  S
C1012      C1013   1.412       .  A
C1012     Br1017   1.927       .  S
C1013      C1014   1.416       .  A
C1014     Br1015   1.923   1_554  S
C1019      C1020   1.425       .  A
C1019      C1024   1.399       .  A
C1019     Br1026   1.927       .  S
C1020      C1021   1.426       .  A
C1021      C1022   1.412       .  A
C1021     Br1028   1.932       .  S
C1022      C1023   1.410       .  A
C1022     Br1027   1.930       .  S
C1023      C1024   1.397       .  A
C1024     Br1025   1.928       .  S
C1029      C1030   1.413       .  A
C1029      C1034   1.404       .  A
C1029     Br1036   1.927   1_455  S
C1030      C1031   1.422       .  A
C1031      C1032   1.419       .  A
C1031     Br1038   1.925   1_556  S
C1032      C1033   1.414       .  A
C1032     Br1037   1.928       .  S
C1033      C1034   1.407       .  A
C1034     Br1035   1.926       .  S
C1039      C1040   1.420       .  A
C1039      C1044   1.397       .  A
C1039     Br1046   1.927       .  S
C1040      C1041   1.425       .  A
C1041      C1042   1.415       .  A
C1041     Br1048   1.935       .  S
C1042      C1043   1.412       .  A
C1042     Br1047   1.929       .  S
C1043      C1044   1.401       .  A
C1044     Br1045   1.928       .  S
C1049      C1050   1.452       .  A
C1049      C1054   1.406       .  A
C1049     Br1056   1.935       .  S
C1051      C1052   1.420       .  A
C1051     Br1058   1.946       .  S
C1052     Br1057   1.938       .  S
C1053      C1054   1.400       .  A
C1054     Br1055   1.951       .  S
C1059      C1060   1.449       .  A
C1059      C1064   1.416       .  A
C1059     Br1066   1.925       .  S
C1061      C1062   1.402       .  A
C1061     Br1068   1.958       .  S
C1062     Br1067   1.949   1_565  S
C1063      C1064   1.394       .  A
C1064     Br1065   1.935       .  S
C1069      C1070   1.453       .  A
C1069      C1074   1.397       .  A
C1069     Br1076   1.934       .  S
C1070      C1071   1.457       .  A
C1071      C1072   1.427       .  A
C1071     Br1078   1.934       .  S
C1072      C1073   1.406       .  A
C1072     Br1077   1.940       .  S
C1073      C1074   1.397       .  A
C1074     Br1075   1.944       .  S
C1079      C1080   1.390       .  A
C1079      C1084   1.411       .  A
C1079     Br1086   1.946       .  S
C1080      C1081   1.390       .  A
C1081      C1082   1.415       .  A
C1081     Br1088   1.939       .  S
C1082      C1083   1.451       .  A
C1082     Br1087   1.912       .  S
C1083      C1084   1.464       .  A
C1084     Br1085   1.942   1_565  S
C1089      C2138   1.589       .  S
C1089      C2148   1.617       .  S
C1089      C2158   1.613       .  S
C1089      C1627   1.615       .  S
C1090      C1564   1.516       .  S
C1090      C1584   1.509   1_554  S
C1091      C1557   1.550       .  S
C1091      C1574   1.553   1_554  S
C1092      C1514   1.599       .  S
C1092      C1527   1.600       .  S
C1092      C1534   1.603       .  S
C1092      C2088   1.587   1_545  S
C1093      C1497   1.607       .  S
C1094      C1444   1.529       .  S
C1094      C1467   1.520   1_554  S
C1094      C1639   1.401       .  D
C1095      C1437   1.523       .  S
C1095      C1454   1.531   1_554  S
C1095      C1638   1.401   1_545  D
C1096      N1114   1.351       .  A
C1096      C1133   1.464       .  S
C1096      C1464   1.492       .  S
N1097      N1114   1.322       .  A
N1097      N1119   1.318       .  A
N1097     Co1134   2.082       .  S
C1098      N1123   1.342       .  A
C1098      C1136   1.461       .  S
C1098      H1143   1.081       .  S
H1099      C1140   1.081       .  S
C1100      N1124   1.336       .  A
C1100      C1104   1.454       .  S
C1100      H1129   1.081       .  S
Co1101     N1119   2.076       .  S
Co1101     N1109   2.089       .  S
Co1101     N1141   2.082       .  S
Co1101     N1117   2.089       .  S
Co1101    Cl1145   2.444       .  S
N1102      C1140   1.346       .  A
N1102      N1109   1.322       .  A
N1102     Co1103   2.107       .  S
Co1103     N1106   2.099       .  S
Co1103     N1123   2.095       .  S
Co1103     N1110   2.089       .  S
Co1103    Cl1145   2.461       .  S
C1104      N1142   1.355       .  A
C1104      C1457   1.483       .  S
N1105      N1112   1.320       .  A
N1105      N1135   1.327       .  A
N1105     Co1138   2.089       .  S
N1106      N1124   1.320       .  A
N1106      N1142   1.327       .  A
N1107      C1136   1.351       .  A
N1107      N1117   1.329       .  A
H1108      C1133   1.080       .  S
N1109      N1130   1.326       .  A
N1110      N1128   1.320       .  A
N1110      N1115   1.326       .  A
C1111      N1115   1.352       .  A
C1111      C1139   1.453       .  S
C1111      C1537   1.473       .  S
N1112      C1127   1.337       .  A
N1112     Co1134   2.080       .  S
C1113      N1141   1.337       .  A
C1113      C1116   1.459       .  S
C1113      H1147   1.081       .  S
C1116      N1137   1.345       .  A
C1116      C1547   1.471       .  S
N1117      N1123   1.319       .  A
N1118      C1144   1.339       .  A
N1118      N1120   1.314       .  A
N1118     Co1134   2.068       .  S
N1119      C1133   1.339       .  A
N1120      N1148   1.321       .  A
N1120     Co1138   2.079       .  S
H1121      C1144   1.081       .  S
H1122      C1139   1.081       .  S
N1124     Co1138   2.070       .  S
N1125      N1137   1.321       .  A
N1125      N1141   1.320       .  A
N1125     Co1134   2.065       .  S
C1126      N1130   1.349       .  A
C1126      C1140   1.466       .  S
C1126      C1577   1.485       .  S
C1127      C1146   1.461       .  S
C1127      H1131   1.081       .  S
N1128      C1139   1.335       .  A
N1128     Co1138   2.070       .  S
C1132      N1148   1.351       .  A
C1132      C1144   1.464       .  S
C1132      C1507   1.494       .  S
Co1134    Cl1145   2.460       .  S
N1135      C1146   1.350       .  A
C1136      C1494   1.482       .  S
Co1138    Cl1145   2.435       .  S
C1146      C1587   1.482       .  S
C1149      N1167   1.348       .  A
C1149      C1186   1.458       .  S
C1149      C1414   1.469       .  S
N1150      N1167   1.323       .  A
N1150      N1172   1.319       .  A
N1150     Co1187   2.078       .  S
C1151      N1176   1.335       .  A
C1151      C1189   1.470       .  S
C1151      H1196   1.076       .  S
H1152      C1193   1.081       .  S
C1153      N1177   1.343       .  A
C1153      C1157   1.467       .  S
C1153      H1182   1.081       .  S
Co1154     N1172   2.085       .  S
Co1154     N1162   2.080       .  S
Co1154     N1194   2.072       .  S
Co1154     N1170   2.092       .  S
Co1154    Cl1198   2.458       .  S
N1155      C1193   1.335       .  A
N1155      N1162   1.316       .  A
N1155     Co1156   2.075       .  S
Co1156     N1159   2.059       .  S
Co1156     N1176   2.078       .  S
Co1156     N1163   2.107       .  S
Co1156    Cl1198   2.429       .  S
C1157      N1195   1.343       .  A
C1157      C1424   1.481       .  S
N1158      N1165   1.321       .  A
N1158      N1188   1.322       .  A
N1158     Co1191   2.063       .  S
N1159      N1177   1.315       .  A
N1159      N1195   1.316       .  A
N1160      C1189   1.356       .  A
N1160      N1170   1.326       .  A
H1161      C1186   1.080       .  S
N1162      N1183   1.326       .  A
N1163      N1181   1.320       .  A
N1163      N1168   1.326       .  A
C1164      N1168   1.355       .  A
C1164      C1192   1.453       .  S
C1164      C1567   1.477       .  S
N1165      C1180   1.345       .  A
N1165     Co1187   2.106       .  S
C1166      N1194   1.338       .  A
C1166      C1169   1.451       .  S
C1166      H1200   1.081       .  S
C1169      N1190   1.358       .  A
C1169      C1554   1.482       .  S
N1170      N1176   1.316       .  A
N1171      C1197   1.337       .  A
N1171      N1173   1.320       .  A
N1171     Co1187   2.079       .  S
N1172      C1186   1.342       .  A
N1173      N1201   1.324       .  A
N1173     Co1191   2.083       .  S
H1174      C1197   1.081       .  S
H1175      C1192   1.081       .  S
N1177     Co1191   2.077       .  S
N1178      N1190   1.331       .  A
N1178      N1194   1.322       .  A
N1178     Co1187   2.123       .  S
C1179      N1183   1.352       .  A
C1179      C1193   1.460       .  S
C1179      C1617   1.486       .  S
C1180      C1199   1.465       .  S
C1180      H1184   1.081       .  S
N1181      C1192   1.338       .  A
N1181     Co1191   2.063       .  S
C1185      N1201   1.350       .  A
C1185      C1197   1.461       .  S
C1185      C1447   1.483       .  S
Co1187    Cl1198   2.448       .  S
N1188      C1199   1.343       .  A
C1189      C1434   1.505       .  S
Co1191    Cl1198   2.458       .  S
C1199      C1624   1.473       .  S
C1202      N1764   1.347   1_545  A
C1202      C1239   1.457       .  S
C1202      C1524   1.472       .  S
N1203      N1220   1.322       .  A
N1203      N1769   1.318       .  A
N1203     Co1240   2.072       .  S
C1204      N1229   1.341       .  A
C1204      C1242   1.464   1_655  S
C1204      H1249   1.081       .  S
H1205      C1246   1.074       .  S
C1206      N1230   1.335       .  A
C1206      C1754   1.457       .  S
C1206      H1235   1.081       .  S
Co1207     N1225   2.078       .  S
Co1207     N1215   2.090       .  S
Co1207     N1247   2.103       .  S
Co1207     N1223   2.104       .  S
N1208      C1246   1.330       .  A
N1208     Co1209   2.066       .  S
Co1209     N1212   2.088       .  S
Co1209     N1229   2.085       .  S
Co1209     N1216   2.079       .  S
Co1209    Cl1251   2.449   1_645  S
C1210      N1248   1.351       .  A
C1210      C1750   1.457   1_545  S
C1210      C1517   1.480       .  S
N1211      N1241   1.327       .  A
N1211     Co1244   2.099       .  S
N1212      N1774   1.319   1_545  A
N1212      N1248   1.326       .  A
N1213      N1223   1.327       .  A
H1214      C1239   1.080       .  S
N1215      N1236   1.326       .  A
N1216      N1778   1.323   1_545  A
N1216      N1221   1.326       .  A
C1217      N1221   1.347   1_565  A
C1217      C1789   1.463       .  S
C1217      C1384   1.480       .  S
N1218      C1233   1.339       .  A
N1218     Co1240   2.077       .  S
C1219      N1247   1.341       .  A
C1219      C1222   1.465   1_545  S
C1219      H1253   1.081       .  S
N1220      C1746   1.347       .  A
C1222      N1787   1.346       .  A
C1222      C1377   1.478       .  S
N1224      C1250   1.343       .  A
N1224     Co1240   2.090       .  S
N1225      C1239   1.340       .  A
N1225      N1747   1.318   1_545  A
N1226      N1254   1.324       .  A
N1226     Co1244   2.094       .  S
H1227      C1250   1.080       .  S
H1228      C1245   1.080       .  S
N1230      N1756   1.319       .  A
N1230     Co1244   2.071       .  S
N1231      N1243   1.326       .  A
N1231      N1791   1.323       .  A
N1231     Co1240   2.078       .  S
C1232      C1246   1.466       .  S
C1232      C1477   1.501       .  S
C1233      H1237   1.081       .  S
N1234      C1245   1.341       .  A
N1234      N1760   1.323       .  A
N1234     Co1244   2.103       .  S
C1238      N1254   1.354   1_455  A
C1238      C1404   1.505   1_455  S
N1241      C1252   1.356       .  A
C1242      C1394   1.499       .  S
N1243      C1766   1.346       .  A
Co1244    Cl1795   2.459   1_655  S
C1245      C1761   1.463       .  S
N1247      N1775   1.323   1_545  A
Cl1251    Co1788   2.459   1_455  S
C1252      C1484   1.480       .  S
C1255      C1292   1.457       .  S
C1255      C1314   1.466       .  S
N1256      N1273   1.321       .  A
N1256     Co1293   2.068       .  S
C1257      N1282   1.346       .  A
C1257      C1295   1.468       .  S
C1257      H1302   1.080       .  S
H1258      C1299   1.076       .  S
C1259      N1283   1.337       .  A
C1259      H1288   1.073       .  S
Co1260     N1278   2.075       .  S
Co1260     N1268   2.073       .  S
Co1260     N1300   2.090       .  S
Co1260     N1276   2.070       .  S
Co1260    Cl1848   2.460       .  S
N1261      C1299   1.334       .  A
N1261      N1812   1.318   1_545  A
N1261     Co1262   2.079       .  S
Co1262     N1265   2.092       .  S
Co1262     N1282   2.107       .  S
Co1262     N1269   2.097       .  S
Co1262    Cl1304   2.439       .  S
C1263      N1301   1.358   1_455  A
C1263      C1327   1.513       .  S
N1264      N1815   1.319   1_545  A
N1264      N1294   1.322       .  A
N1264     Co1297   2.076       .  S
N1265      N1301   1.324       .  A
N1266      C1839   1.345       .  A
N1266      N1276   1.321       .  A
H1267      C1292   1.081       .  S
N1268      N1805   1.318       .  A
N1268      N1289   1.325       .  A
N1269      N1274   1.322       .  A
C1270      N1274   1.352   1_455  A
C1270      C1334   1.507       .  S
N1271      C1286   1.339       .  A
N1271      N1808   1.319       .  A
N1271     Co1293   2.078       .  S
C1272      N1300   1.343       .  A
C1272      C1275   1.465       .  S
C1272      H1306   1.081       .  S
C1275      C1344   1.490       .  S
N1276      N1826   1.321       .  A
N1277      C1303   1.328       .  A
N1277      N1823   1.315       .  A
N1277     Co1293   2.064       .  S
N1278      C1292   1.342       .  A
N1279      N1821   1.315   1_545  A
N1279      N1307   1.326       .  A
N1279     Co1297   2.092       .  S
H1280      C1303   1.071       .  S
H1281      C1298   1.080       .  S
N1282      N1820   1.321   1_545  A
N1283     Co1297   2.071       .  S
N1284      N1296   1.325       .  A
N1284     Co1293   2.090       .  S
C1285      N1833   1.349   1_545  A
C1285      C1299   1.458       .  S
C1285      C1597   1.480       .  S
C1286      C1849   1.458       .  S
C1286      H1290   1.081       .  S
N1287      C1298   1.347       .  A
N1287     Co1297   2.100       .  S
N1289      C1829   1.350       .  A
C1291      N1307   1.358   1_565  A
C1291      C1847   1.465       .  S
C1291      C1354   1.504       .  S
N1294      C1305   1.347   1_545  A
C1295      N1810   1.345   1_545  A
C1295      C1367   1.485       .  S
C1303      C1835   1.465       .  S
Cl1304    Co1804   2.460   1_545  S
C1305      C1830   1.458       .  S
C1305      C1607   1.465       .  S
C1308      C1347   1.533       .  S
C1308      C1407   1.532       .  S
C1308      C1309   1.406       .  D
C1309      C1337   1.531       .  S
C1309      C1397   1.533       .  S
C1310      C1364   1.530       .  S
C1310      C1387   1.524       .  S
C1310      C1311   1.402       .  D
C1311      C1357   1.508       .  S
C1311      C1374   1.534       .  S
C1312      C1417   1.597       .  S
C1313      C1318   1.415       .  A
C1313     Br1320   1.937       .  S
C1314      C1315   1.391       .  A
C1315      C1316   1.406       .  A
C1315     Br1322   1.940       .  S
C1316      C1317   1.452   1_655  A
C1316     Br1321   1.939   1_655  S
C1318     Br1319   1.925       .  S
C1323      C1328   1.419       .  A
C1323     Br1330   1.948       .  S
C1324      C1325   1.444   1_455  A
C1325      C1326   1.407       .  A
C1325     Br1332   1.930       .  S
C1326      C1327   1.409   1_655  A
C1326     Br1331   1.937       .  S
C1328     Br1329   1.933       .  S
C1333      C1338   1.423       .  A
C1333     Br1340   1.931       .  S
C1334      C1335   1.408   1_455  A
C1335      C1336   1.404       .  A
C1335     Br1342   1.932       .  S
C1336     Br1341   1.930       .  S
C1337      C1338   1.427       .  A
C1338     Br1339   1.932       .  S
C1343      C1344   1.409       .  A
C1343      C1348   1.414       .  A
C1343     Br1350   1.934       .  S
C1345      C1346   1.411       .  A
C1345     Br1352   1.938       .  S
C1346      C1347   1.430       .  A
C1346     Br1351   1.929       .  S
C1348     Br1349   1.929       .  S
C1353      C1354   1.422   1_545  A
C1353      C1358   1.416       .  A
C1353     Br1360   1.934       .  S
C1354      C1899   1.414       .  A
C1355      C1898   1.414       .  A
C1355      C1356   1.397       .  A
C1355     Br1362   1.932       .  S
C1356      C1357   1.413       .  A
C1356     Br1361   1.936       .  S
C1357      C1902   1.421       .  A
C1358      C1901   1.421   1_545  A
C1358     Br1359   1.934       .  S
C1363      C1364   1.427       .  A
C1363      C1368   1.408       .  A
C1363     Br1370   1.927       .  S
C1364      C1909   1.427       .  A
C1365      C1908   1.427   1_545  A
C1365      C1366   1.406       .  A
C1365     Br1372   1.932       .  S
C1366      C1367   1.403       .  A
C1366     Br1371   1.926       .  S
C1367      C1912   1.409   1_545  A
C1368      C1911   1.409       .  A
C1368     Br1369   1.935       .  S
C1373      C1918   1.439   1_545  A
C1373      C1378   1.401   1_545  A
C1373     Br1380   1.928       .  S
C1374      C1917   1.439       .  A
C1374      C1375   1.428       .  A
C1375      C1376   1.416       .  A
C1375     Br1382   1.929       .  S
C1376      C1921   1.406       .  A
C1376     Br1381   1.927       .  S
C1377      C1920   1.406       .  A
C1377      C1378   1.391       .  A
C1378     Br1379   1.937   1_565  S
C1383      C1928   1.410       .  A
C1383      C1388   1.418       .  A
C1383     Br1390   1.929       .  S
C1384      C1927   1.410   1_565  A
C1384      C1385   1.395       .  A
C1385      C1386   1.399       .  A
C1385     Br1392   1.933       .  S
C1386      C1931   1.429       .  A
C1386     Br1391   1.926       .  S
C1387      C1930   1.429       .  A
C1387      C1388   1.428       .  A
C1388     Br1389   1.932       .  S
C1393      C1398   1.411       .  A
C1393     Br1400   1.931       .  S
C1394      C1395   1.413   1_455  A
C1395      C1396   1.415       .  A
C1395     Br1402   1.935       .  S
C1396     Br1401   1.931       .  S
C1397      C1398   1.428       .  A
C1398     Br1399   1.931       .  S
C1403      C1404   1.411       .  A
C1403      C1408   1.409       .  A
C1403     Br1410   1.934       .  S
C1405      C1406   1.418       .  A
C1405     Br1412   1.933       .  S
C1406      C1407   1.425       .  A
C1406     Br1411   1.931       .  S
C1408     Br1409   1.932       .  S
C1413      C1414   1.392       .  A
C1413      C1418   1.399       .  A
C1413     Br1420   1.940       .  S
C1414      C1415   1.401       .  A
C1415      C1416   1.419       .  A
C1415     Br1422   1.932       .  S
C1416      C1417   1.444       .  A
C1416     Br1421   1.930       .  S
C1417      C1418   1.451       .  A
C1418     Br1419   1.949       .  S
C1423      C1424   1.402       .  A
C1423      C1428   1.420       .  A
C1423     Br1430   1.944       .  S
C1424      C1425   1.403       .  A
C1425      C1426   1.405       .  A
C1425     Br1432   1.952       .  S
C1426      C1427   1.448       .  A
C1426     Br1431   1.930       .  S
C1427      C1428   1.457       .  A
C1428     Br1429   1.940       .  S
C1433      C1434   1.414       .  A
C1433      C1438   1.406       .  A
C1433     Br1440   1.931       .  S
C1434      C1435   1.418       .  A
C1435      C1436   1.418       .  A
C1435     Br1442   1.935       .  S
C1436      C1437   1.424       .  A
C1436     Br1441   1.935       .  S
C1437      C1438   1.423       .  A
C1438     Br1439   1.933       .  S
C1443      C1444   1.430       .  A
C1443      C1448   1.414       .  A
C1443     Br1450   1.931       .  S
C1444      C1445   1.429       .  A
C1445      C1446   1.403       .  A
C1445     Br1452   1.928       .  S
C1446      C1447   1.402       .  A
C1446     Br1451   1.939       .  S
C1447      C1448   1.410       .  A
C1448     Br1449   1.935       .  S
C1453      C1454   1.429       .  A
C1453      C1458   1.410       .  A
C1453     Br1460   1.931       .  S
C1454      C1455   1.430       .  A
C1455      C1456   1.408       .  A
C1455     Br1462   1.928       .  S
C1456      C1457   1.402       .  A
C1456     Br1461   1.933       .  S
C1457      C1458   1.408       .  A
C1458     Br1459   1.935       .  S
C1463      C1464   1.414       .  A
C1463      C1468   1.413       .  A
C1463     Br1470   1.934       .  S
C1464      C1465   1.407       .  A
C1465      C1466   1.403       .  A
C1465     Br1472   1.935       .  S
C1466      C1467   1.426       .  A
C1466     Br1471   1.932       .  S
C1467      C1468   1.425       .  A
C1468     Br1469   1.936       .  S
C1473      C1478   1.413       .  A
C1473     Br1480   1.936       .  S
C1474      C1475   1.442       .  A
C1475      C1476   1.401       .  A
C1475     Br1482   1.923       .  S
C1476      C1477   1.407       .  A
C1476     Br1481   1.935       .  S
C1478     Br1479   1.931       .  S
C1483      C1484   1.395       .  A
C1483      C1488   1.410   1_655  A
C1483     Br1490   1.948       .  S
C1485      C1486   1.420       .  A
C1485     Br1492   1.935       .  S
C1486     Br1491   1.936       .  S
C1487      C1488   1.458       .  A
C1488     Br1489   1.944       .  S
C1493      C1494   1.394       .  A
C1493      C1498   1.400       .  A
C1493     Br1500   1.933       .  S
C1494      C1495   1.404       .  A
C1495      C1496   1.421       .  A
C1495     Br1502   1.930       .  S
C1496      C1497   1.447       .  A
C1496     Br1501   1.927       .  S
C1497      C1498   1.441       .  A
C1498     Br1499   1.919       .  S
C1503      C1504   1.445       .  A
C1503      C1508   1.409       .  A
C1503     Br1510   1.954       .  S
C1504      C1505   1.455       .  A
C1505      C1506   1.422       .  A
C1505     Br1512   1.951       .  S
C1506      C1507   1.408       .  A
C1506     Br1511   1.947       .  S
C1507      C1508   1.405       .  A
C1508     Br1509   1.947       .  S
C1513      C2058   1.455       .  A
C1513      C1518   1.405       .  A
C1513     Br1520   1.951       .  S
C1514      C2057   1.455   1_545  A
C1514      C1515   1.453       .  A
C1515      C1516   1.413       .  A
C1515     Br1522   1.944       .  S
C1516      C1517   1.401       .  A
C1516     Br1521   1.937       .  S
C1517      C2062   1.396   1_545  A
C1518      C2061   1.396       .  A
C1518     Br1519   1.942       .  S
C1523      C1524   1.394       .  A
C1523      C1528   1.413       .  A
C1523     Br1530   1.940       .  S
C1524      C1525   1.393   1_545  A
C1525      C1526   1.404       .  A
C1525     Br1532   1.940       .  S
C1526      C1527   1.452   1_565  A
C1526     Br2075   1.933       .  S
C1527      C1528   1.458       .  A
C1528     Br1529   1.935       .  S
Br1531     C2070   1.933       .  S
C1533      C1534   1.457       .  A
C1533      C1538   1.412       .  A
C1533     Br1540   1.939   1_545  S
C1534      C1535   1.452       .  A
C1535      C1536   1.404       .  A
C1535     Br1542   1.948       .  S
C1536      C1537   1.394       .  A
C1536     Br1541   1.939       .  S
C1537      C1538   1.398       .  A
C1538     Br1539   1.941       .  S
C1543      C1544   1.451       .  A
C1543      C1548   1.408       .  A
C1543     Br1550   1.937       .  S
C1544      C1636   1.587       .  S
C1544      C1545   1.454       .  A
C1545      C1546   1.402       .  A
C1545     Br1552   1.949       .  S
C1546      C1547   1.393       .  A
C1546     Br1551   1.936       .  S
C1547      C1548   1.400       .  A
C1548     Br1549   1.941       .  S
C1553      C1554   1.414       .  A
C1553      C1558   1.416       .  A
C1553     Br1560   1.927       .  S
C1554      C1555   1.407       .  A
C1555      C1556   1.406       .  A
C1555     Br1562   1.926       .  S
C1556      C1557   1.412       .  A
C1556     Br1561   1.927       .  S
C1557      C1558   1.416       .  A
C1558     Br1559   1.923   1_554  S
C1563      C1564   1.425       .  A
C1563      C1568   1.399       .  A
C1563     Br1570   1.927       .  S
C1564      C1565   1.426       .  A
C1565      C1566   1.412       .  A
C1565     Br1572   1.932       .  S
C1566      C1567   1.410       .  A
C1566     Br1571   1.930       .  S
C1567      C1568   1.397       .  A
C1568     Br1569   1.928       .  S
C1573      C1574   1.413       .  A
C1573      C1578   1.404       .  A
C1573     Br1580   1.927       .  S
C1574      C1575   1.422       .  A
C1575      C1576   1.419       .  A
C1575     Br1582   1.925   1_556  S
C1576      C1577   1.414       .  A
C1576     Br1581   1.928       .  S
C1577      C1578   1.407       .  A
C1578     Br1579   1.926       .  S
C1583      C1584   1.420       .  A
C1583      C1588   1.397       .  A
C1583     Br1590   1.927       .  S
C1584      C1585   1.425       .  A
C1585      C1586   1.415       .  A
C1585     Br1592   1.935       .  S
C1586      C1587   1.412       .  A
C1586     Br1591   1.929       .  S
C1587      C1588   1.401       .  A
C1588     Br1589   1.928       .  S
C1593      C1594   1.452       .  A
C1593      C1598   1.406       .  A
C1593     Br1600   1.935       .  S
C1594      C1633   1.588       .  S
C1594      C2139   1.448   1_545  A
C1595      C2138   1.449       .  A
C1595      C1596   1.420       .  A
C1595     Br1602   1.946       .  S
C1596      C2141   1.406       .  A
C1596     Br1601   1.938       .  S
C1597      C2140   1.406   1_545  A
C1597      C1598   1.400       .  A
C1598     Br1599   1.951       .  S
C1603      C1604   1.449       .  A
C1603      C1608   1.416       .  A
C1603     Br1610   1.925       .  S
C1604      C1633   1.617   1_565  S
C1604      C2149   1.465       .  A
C1605      C2148   1.465       .  A
C1605      C1606   1.402       .  A
C1605     Br1612   1.958       .  S
C1606      C2151   1.389       .  A
C1606     Br1611   1.949       .  S
C1607      C2150   1.389       .  A
C1607      C1608   1.394       .  A
C1608     Br1609   1.935       .  S
C1613      C1614   1.453       .  A
C1613      C1618   1.396       .  A
C1613     Br1620   1.935       .  S
C1614      C1633   1.614       .  S
C1614      C1615   1.457       .  A
C1615      C1616   1.427       .  A
C1615     Br1622   1.934       .  S
C1616      C1617   1.407       .  A
C1616     Br1621   1.940       .  S
C1617      C1618   1.398       .  A
C1618     Br1619   1.944       .  S
C1623      C1624   1.390       .  A
C1623      C1628   1.411       .  A
C1623     Br1630   1.946       .  S
C1624      C1625   1.390       .  A
C1625      C1626   1.415       .  A
C1625     Br1632   1.939       .  S
C1626      C1627   1.451       .  A
C1626     Br1631   1.912       .  S
C1627      C1628   1.463       .  A
C1628     Br1629   1.943       .  S
C1633      C2171   1.615   1_545  S
C1634      C2108   1.516       .  S
C1634      C2128   1.509   1_554  S
C1635      C2101   1.550       .  S
C1635      C2118   1.553   1_554  S
C1636      C2058   1.599       .  S
C1636      C2071   1.600       .  S
C1636      C2078   1.603       .  S
C1637      C2041   1.607       .  S
C1638      C1988   1.529       .  S
C1638      C2011   1.520   1_554  S
C1639      C1981   1.523       .  S
C1639      C1998   1.531   1_554  S
C1640      N1658   1.351       .  A
C1640      C1677   1.464       .  S
C1640      C2008   1.492       .  S
N1641      N1658   1.322       .  A
N1641      N1663   1.318       .  A
N1641     Co1678   2.082       .  S
C1642      N1667   1.342       .  A
C1642      C1680   1.462       .  S
C1642      H1687   1.081       .  S
H1643      C1684   1.081       .  S
C1644      N1668   1.336       .  A
C1644      C1648   1.454       .  S
C1644      H1673   1.081       .  S
Co1645     N1663   2.076       .  S
Co1645     N1653   2.089       .  S
Co1645     N1685   2.082       .  S
Co1645     N1661   2.089       .  S
Co1645    Cl1689   2.444       .  S
N1646      C1684   1.346       .  A
N1646      N1653   1.322       .  A
N1646     Co1647   2.107       .  S
Co1647     N1650   2.099       .  S
Co1647     N1667   2.095       .  S
Co1647     N1654   2.089       .  S
Co1647    Cl1689   2.461       .  S
C1648      N1686   1.355       .  A
C1648      C2001   1.484       .  S
N1649      N1656   1.320       .  A
N1649      N1679   1.327       .  A
N1649     Co1682   2.089       .  S
N1650      N1668   1.320       .  A
N1650      N1686   1.327       .  A
N1651      C1680   1.351       .  A
N1651      N1661   1.329       .  A
H1652      C1677   1.080       .  S
N1653      N1674   1.326       .  A
N1654      N1672   1.320       .  A
N1654      N1659   1.326       .  A
C1655      N1659   1.352       .  A
C1655      C1683   1.453       .  S
C1655      C2081   1.473       .  S
N1656      C1671   1.337       .  A
N1656     Co1678   2.080       .  S
C1657      N1685   1.337       .  A
C1657      C1660   1.459       .  S
C1657      H1691   1.081       .  S
C1660      N1681   1.345       .  A
C1660      C2091   1.471       .  S
N1661      N1667   1.319       .  A
N1662      C1688   1.339       .  A
N1662      N1664   1.314       .  A
N1662     Co1678   2.068       .  S
N1663      C1677   1.339       .  A
N1664      N1692   1.321       .  A
N1664     Co1682   2.079       .  S
H1665      C1688   1.081       .  S
H1666      C1683   1.081       .  S
N1668     Co1682   2.070       .  S
N1669      N1681   1.321       .  A
N1669      N1685   1.320       .  A
N1669     Co1678   2.065       .  S
C1670      N1674   1.349       .  A
C1670      C1684   1.466       .  S
C1670      C2121   1.485       .  S
C1671      C1690   1.461       .  S
C1671      H1675   1.081       .  S
N1672      C1683   1.335       .  A
N1672     Co1682   2.070       .  S
C1676      N1692   1.352       .  A
C1676      C1688   1.464       .  S
C1676      C2051   1.494       .  S
Co1678    Cl1689   2.460       .  S
N1679      C1690   1.350       .  A
C1680      C2038   1.482       .  S
Co1682    Cl1689   2.435       .  S
C1690      C2131   1.482       .  S
C1693      N1711   1.348       .  A
C1693      C1730   1.458       .  S
C1693      C1958   1.469       .  S
N1694      N1711   1.323       .  A
N1694      N1716   1.319       .  A
N1694     Co1731   2.078       .  S
C1695      N1720   1.335       .  A
C1695      C1733   1.470       .  S
C1695      H1740   1.076       .  S
H1696      C1737   1.081       .  S
C1697      N1721   1.343       .  A
C1697      C1701   1.467       .  S
C1697      H1726   1.081       .  S
Co1698     N1716   2.086       .  S
Co1698     N1706   2.079       .  S
Co1698     N1738   2.073       .  S
Co1698     N1714   2.091       .  S
Co1698    Cl1742   2.458       .  S
N1699      C1737   1.335       .  A
N1699      N1706   1.316       .  A
N1699     Co1700   2.075       .  S
Co1700     N1703   2.058       .  S
Co1700     N1720   2.079       .  S
Co1700     N1707   2.108       .  S
Co1700    Cl1742   2.431       .  S
C1701      N1739   1.343       .  A
C1701      C1968   1.481       .  S
N1702      N1709   1.321       .  A
N1702      N1732   1.322       .  A
N1702     Co1735   2.063       .  S
N1703      N1721   1.315       .  A
N1703      N1739   1.316       .  A
N1704      C1733   1.356       .  A
N1704      N1714   1.326       .  A
H1705      C1730   1.080       .  S
N1706      N1727   1.326       .  A
N1707      N1725   1.320       .  A
N1707      N1712   1.326       .  A
C1708      N1712   1.355       .  A
C1708      C1736   1.453       .  S
C1708      C2111   1.478       .  S
N1709      C1724   1.345       .  A
N1709     Co1731   2.105       .  S
C1710      N1738   1.338       .  A
C1710      C1713   1.451       .  S
C1710      H1744   1.081       .  S
C1713      N1734   1.358       .  A
C1713      C2098   1.482       .  S
N1714      N1720   1.316       .  A
N1715      C1741   1.337       .  A
N1715      N1717   1.320       .  A
N1715     Co1731   2.079       .  S
N1716      C1730   1.342       .  A
N1717      N1745   1.324       .  A
N1717     Co1735   2.083       .  S
H1718      C1741   1.081       .  S
H1719      C1736   1.081       .  S
N1721     Co1735   2.077       .  S
N1722      N1734   1.331       .  A
N1722      N1738   1.322       .  A
N1722     Co1731   2.124       .  S
C1723      N1727   1.352       .  A
C1723      C1737   1.460       .  S
C1723      C2161   1.486       .  S
C1724      C1743   1.465       .  S
C1724      H1728   1.081       .  S
N1725      C1736   1.338       .  A
N1725     Co1735   2.063       .  S
C1729      N1745   1.350       .  A
C1729      C1741   1.461       .  S
C1729      C1991   1.483       .  S
Co1731    Cl1742   2.445       .  S
N1732      C1743   1.343       .  A
C1733      C1978   1.505       .  S
Co1735    Cl1742   2.458       .  S
C1743      C2168   1.474       .  S
C1746      C1783   1.457       .  S
C1746      C2068   1.472       .  S
N1747      N1764   1.322       .  A
N1747     Co1784   2.072       .  S
C1748      N1773   1.341       .  A
C1748      C1786   1.464   1_655  S
C1748      H1793   1.081       .  S
H1749      C1790   1.074       .  S
C1750      N1774   1.335       .  A
C1750      H1779   1.081       .  S
Co1751     N1769   2.078       .  S
Co1751     N1759   2.090       .  S
Co1751     N1791   2.103       .  S
Co1751     N1767   2.104       .  S
N1752      C1790   1.330       .  A
N1752     Co1753   2.066       .  S
Co1753     N1756   2.088       .  S
Co1753     N1773   2.085       .  S
Co1753     N1760   2.079       .  S
Co1753    Cl1795   2.449   1_655  S
C1754      N1792   1.351       .  A
C1754      C2061   1.480       .  S
N1755      N1785   1.327       .  A
N1755     Co1788   2.099       .  S
N1756      N1792   1.326       .  A
N1757      N1767   1.327       .  A
H1758      C1783   1.080       .  S
N1759      N1780   1.326       .  A
N1760      N1765   1.326       .  A
C1761      N1765   1.347       .  A
C1761      C1928   1.480       .  S
N1762      C1777   1.339       .  A
N1762     Co1784   2.077       .  S
C1763      N1791   1.340       .  A
C1763      C1766   1.465       .  S
C1763      H1797   1.081       .  S
C1766      C1921   1.478       .  S
N1768      C1794   1.343       .  A
N1768     Co1784   2.090       .  S
N1769      C1783   1.340       .  A
N1770      N1798   1.324       .  A
N1770     Co1788   2.094       .  S
H1771      C1794   1.080       .  S
H1772      C1789   1.080       .  S
N1774     Co1788   2.070       .  S
N1775      N1787   1.326       .  A
N1775     Co1784   2.078       .  S
C1776      C1790   1.466       .  S
C1776      C2021   1.501       .  S
C1777      H1781   1.081       .  S
N1778      C1789   1.341       .  A
N1778     Co1788   2.103       .  S
C1782      N1798   1.354   1_455  A
C1782      C1948   1.505   1_455  S
N1785      C1796   1.356       .  A
C1786      C1938   1.499       .  S
C1796      C2028   1.480       .  S
C1799      C1836   1.457       .  S
C1799      C1858   1.466       .  S
N1800      N1817   1.321       .  A
N1800     Co1837   2.068       .  S
C1801      N1826   1.346       .  A
C1801      C1839   1.468       .  S
C1801      H1846   1.080       .  S
H1802      C1843   1.076       .  S
C1803      N1827   1.337       .  A
C1803      H1832   1.073       .  S
Co1804     N1822   2.075       .  S
Co1804     N1812   2.073       .  S
Co1804     N1844   2.090       .  S
Co1804     N1820   2.070       .  S
N1805      C1843   1.334       .  A
N1805     Co1806   2.079       .  S
Co1806     N1809   2.092       .  S
Co1806     N1826   2.107       .  S
Co1806     N1813   2.098       .  S
Co1806    Cl1848   2.439       .  S
C1807      N1845   1.357   1_455  A
C1807      C1871   1.513       .  S
N1808      N1838   1.322       .  A
N1808     Co1841   2.075       .  S
N1809      N1845   1.324       .  A
N1810      N1820   1.321       .  A
H1811      C1836   1.081       .  S
N1812      N1833   1.325       .  A
N1813      N1818   1.322       .  A
C1814      N1818   1.352   1_455  A
C1814      C1878   1.507       .  S
N1815      C1830   1.339       .  A
N1815     Co1837   2.078       .  S
C1816      N1844   1.343       .  A
C1816      C1819   1.465       .  S
C1816      H1850   1.081       .  S
C1819      C1888   1.489       .  S
N1821      C1847   1.328       .  A
N1821     Co1837   2.064       .  S
N1822      C1836   1.342       .  A
N1823      N1851   1.326       .  A
N1823     Co1841   2.092       .  S
H1824      C1847   1.071       .  S
H1825      C1842   1.080       .  S
N1827     Co1841   2.072       .  S
N1828      N1840   1.325       .  A
N1828     Co1837   2.090       .  S
C1829      C1843   1.458       .  S
C1829      C2141   1.481       .  S
C1830      H1834   1.081       .  S
N1831      C1842   1.347       .  A
N1831     Co1841   2.099       .  S
C1835      N1851   1.358       .  A
C1835      C1898   1.504       .  S
N1838      C1849   1.347       .  A
C1839      C1911   1.485       .  S
C1849      C2151   1.465       .  S
C1852      C1891   1.533       .  S
C1852      C1951   1.532       .  S
C1852      C1853   1.406       .  D
C1853      C1881   1.531       .  S
C1853      C1941   1.533       .  S
C1854      C1908   1.530       .  S
C1854      C1931   1.524       .  S
C1854      C1855   1.402       .  D
C1855      C1901   1.508       .  S
C1855      C1918   1.534       .  S
C1856      C1961   1.597       .  S
C1857      C1862   1.415       .  A
C1857     Br1864   1.937       .  S
C1858      C1859   1.391       .  A
C1859      C1860   1.406       .  A
C1859     Br1866   1.940       .  S
C1860      C1861   1.452   1_655  A
C1860     Br1865   1.940   1_655  S
C1862     Br1863   1.925       .  S
C1867      C1872   1.419       .  A
C1867     Br1874   1.948       .  S
C1868      C1869   1.444   1_455  A
C1869      C1870   1.407       .  A
C1869     Br1876   1.930       .  S
C1870      C1871   1.409   1_655  A
C1870     Br1875   1.937       .  S
C1872     Br1873   1.933       .  S
C1877      C1882   1.423       .  A
C1877     Br1884   1.931       .  S
C1878      C1879   1.408   1_455  A
C1879      C1880   1.404       .  A
C1879     Br1886   1.932       .  S
C1880     Br1885   1.930       .  S
C1881      C1882   1.427       .  A
C1882     Br1883   1.932       .  S
C1887      C1888   1.409       .  A
C1887      C1892   1.414       .  A
C1887     Br1894   1.934       .  S
C1889      C1890   1.411       .  A
C1889     Br1896   1.939       .  S
C1890      C1891   1.430       .  A
C1890     Br1895   1.929       .  S
C1892     Br1893   1.929       .  S
C1897      C1898   1.422       .  A
C1897      C1902   1.416       .  A
C1897     Br1904   1.934       .  S
C1899      C1900   1.397       .  A
C1899     Br1906   1.932       .  S
C1900      C1901   1.413       .  A
C1900     Br1905   1.936       .  S
C1902     Br1903   1.934       .  S
C1907      C1908   1.427       .  A
C1907      C1912   1.408       .  A
C1907     Br1914   1.927       .  S
C1909      C1910   1.406       .  A
C1909     Br1916   1.932       .  S
C1910      C1911   1.403       .  A
C1910     Br1915   1.926       .  S
C1912     Br1913   1.935       .  S
C1917      C1922   1.400       .  A
C1917     Br1924   1.928       .  S
C1918      C1919   1.428       .  A
C1919      C1920   1.416       .  A
C1919     Br1926   1.929       .  S
C1920     Br1925   1.927       .  S
C1921      C1922   1.391       .  A
C1922     Br1923   1.937       .  S
C1927      C1932   1.418       .  A
C1927     Br1934   1.929       .  S
C1928      C1929   1.395       .  A
C1929      C1930   1.399       .  A
C1929     Br1936   1.933       .  S
C1930     Br1935   1.926       .  S
C1931      C1932   1.428   1_565  A
C1932     Br1933   1.932       .  S
C1937      C1942   1.411       .  A
C1937     Br1944   1.931       .  S
C1938      C1939   1.413   1_455  A
C1939      C1940   1.415       .  A
C1939     Br1946   1.935       .  S
C1940     Br1945   1.931       .  S
C1941      C1942   1.428       .  A
C1942     Br1943   1.931       .  S
C1947      C1948   1.411       .  A
C1947      C1952   1.409       .  A
C1947     Br1954   1.934       .  S
C1949      C1950   1.418       .  A
C1949     Br1956   1.933       .  S
C1950      C1951   1.425       .  A
C1950     Br1955   1.931       .  S
C1952     Br1953   1.932       .  S
C1957      C1958   1.392       .  A
C1957      C1962   1.399       .  A
C1957     Br1964   1.940       .  S
C1958      C1959   1.401       .  A
C1959      C1960   1.419       .  A
C1959     Br1966   1.932       .  S
C1960      C1961   1.444       .  A
C1960     Br1965   1.929       .  S
C1961      C1962   1.451       .  A
C1962     Br1963   1.949       .  S
C1967      C1968   1.402       .  A
C1967      C1972   1.420       .  A
C1967     Br1974   1.944       .  S
C1968      C1969   1.403       .  A
C1969      C1970   1.405       .  A
C1969     Br1976   1.952       .  S
C1970      C1971   1.448       .  A
C1970     Br1975   1.930       .  S
C1971      C1972   1.457       .  A
C1972     Br1973   1.940       .  S
C1977      C1978   1.414       .  A
C1977      C1982   1.406       .  A
C1977     Br1984   1.931       .  S
C1978      C1979   1.418       .  A
C1979      C1980   1.418       .  A
C1979     Br1986   1.935       .  S
C1980      C1981   1.424       .  A
C1980     Br1985   1.935       .  S
C1981      C1982   1.423       .  A
C1982     Br1983   1.933       .  S
C1987      C1988   1.430       .  A
C1987      C1992   1.414       .  A
C1987     Br1994   1.931       .  S
C1988      C1989   1.429       .  A
C1989      C1990   1.403       .  A
C1989     Br1996   1.928       .  S
C1990      C1991   1.402       .  A
C1990     Br1995   1.939       .  S
C1991      C1992   1.410       .  A
C1992     Br1993   1.935       .  S
C1997      C1998   1.429       .  A
C1997      C2002   1.410       .  A
C1997     Br2004   1.931       .  S
C1998      C1999   1.430       .  A
C1999      C2000   1.408       .  A
C1999     Br2006   1.928       .  S
C2000      C2001   1.402       .  A
C2000     Br2005   1.933       .  S
C2001      C2002   1.408       .  A
C2002     Br2003   1.935       .  S
C2007      C2008   1.414       .  A
C2007      C2012   1.413       .  A
C2007     Br2014   1.934       .  S
C2008      C2009   1.407       .  A
C2009      C2010   1.403       .  A
C2009     Br2016   1.935       .  S
C2010      C2011   1.426       .  A
C2010     Br2015   1.932       .  S
C2011      C2012   1.425       .  A
C2012     Br2013   1.936       .  S
C2017      C2022   1.413       .  A
C2017     Br2024   1.936       .  S
C2018      C2019   1.442       .  A
C2019      C2020   1.401       .  A
C2019     Br2026   1.923       .  S
C2020      C2021   1.407       .  A
C2020     Br2025   1.935       .  S
C2022     Br2023   1.931       .  S
C2027      C2028   1.395       .  A
C2027      C2032   1.410   1_655  A
C2027     Br2034   1.948       .  S
C2029      C2030   1.420       .  A
C2029     Br2036   1.935       .  S
C2030     Br2035   1.936       .  S
C2031      C2032   1.458       .  A
C2032     Br2033   1.944       .  S
C2037      C2038   1.394       .  A
C2037      C2042   1.400       .  A
C2037     Br2044   1.933       .  S
C2038      C2039   1.404       .  A
C2039      C2040   1.421       .  A
C2039     Br2046   1.930       .  S
C2040      C2041   1.447       .  A
C2040     Br2045   1.927       .  S
C2041      C2042   1.441       .  A
C2042     Br2043   1.919       .  S
C2047      C2048   1.445       .  A
C2047      C2052   1.409       .  A
C2047     Br2054   1.954       .  S
C2048      C2049   1.455       .  A
C2049      C2050   1.422       .  A
C2049     Br2056   1.951       .  S
C2050      C2051   1.408       .  A
C2050     Br2055   1.947       .  S
C2051      C2052   1.405       .  A
C2052     Br2053   1.947       .  S
C2057      C2062   1.405       .  A
C2057     Br2064   1.951       .  S
C2058      C2059   1.453       .  A
C2059      C2060   1.413       .  A
C2059     Br2066   1.944       .  S
C2060      C2061   1.401       .  A
C2060     Br2065   1.937       .  S
C2062     Br2063   1.942       .  S
C2067      C2068   1.394       .  A
C2067      C2072   1.413       .  A
C2067     Br2074   1.940       .  S
C2068      C2069   1.393       .  A
C2069      C2070   1.404       .  A
C2069     Br2076   1.940       .  S
C2070      C2071   1.452       .  A
C2071      C2072   1.458       .  A
C2072     Br2073   1.935       .  S
C2077      C2078   1.457       .  A
C2077      C2082   1.412       .  A
C2077     Br2084   1.939       .  S
C2078      C2079   1.452       .  A
C2079      C2080   1.404       .  A
C2079     Br2086   1.948       .  S
C2080      C2081   1.394       .  A
C2080     Br2085   1.939       .  S
C2081      C2082   1.398       .  A
C2082     Br2083   1.941       .  S
C2087      C2088   1.451       .  A
C2087      C2092   1.408       .  A
C2087     Br2094   1.937   1_565  S
C2088      C2089   1.454       .  A
C2089      C2090   1.402       .  A
C2089     Br2096   1.949       .  S
C2090      C2091   1.393       .  A
C2090     Br2095   1.936       .  S
C2091      C2092   1.400       .  A
C2092     Br2093   1.941       .  S
C2097      C2098   1.414       .  A
C2097      C2102   1.416       .  A
C2097     Br2104   1.927       .  S
C2098      C2099   1.407       .  A
C2099      C2100   1.406       .  A
C2099     Br2106   1.926       .  S
C2100      C2101   1.412       .  A
C2100     Br2105   1.927       .  S
C2101      C2102   1.416       .  A
C2102     Br2103   1.923   1_554  S
C2107      C2108   1.425       .  A
C2107      C2112   1.400       .  A
C2107     Br2114   1.927       .  S
C2108      C2109   1.426       .  A
C2109      C2110   1.412       .  A
C2109     Br2116   1.932       .  S
C2110      C2111   1.410       .  A
C2110     Br2115   1.930       .  S
C2111      C2112   1.397       .  A
C2112     Br2113   1.928       .  S
C2117      C2118   1.413       .  A
C2117      C2122   1.404       .  A
C2117     Br2124   1.927       .  S
C2118      C2119   1.422       .  A
C2119      C2120   1.419       .  A
C2119     Br2126   1.925   1_556  S
C2120      C2121   1.414       .  A
C2120     Br2125   1.928       .  S
C2121      C2122   1.407       .  A
C2122     Br2123   1.926       .  S
C2127      C2128   1.420       .  A
C2127      C2132   1.397       .  A
C2127     Br2134   1.927       .  S
C2128      C2129   1.425       .  A
C2129      C2130   1.415       .  A
C2129     Br2136   1.935       .  S
C2130      C2131   1.412       .  A
C2130     Br2135   1.929       .  S
C2131      C2132   1.401       .  A
C2132     Br2133   1.928       .  S
C2137      C2138   1.452       .  A
C2137      C2142   1.406       .  A
C2137     Br2144   1.935       .  S
C2139      C2140   1.420       .  A
C2139     Br2146   1.946       .  S
C2140     Br2145   1.938       .  S
C2141      C2142   1.400       .  A
C2142     Br2143   1.951       .  S
C2147      C2148   1.449       .  A
C2147      C2152   1.416       .  A
C2147     Br2154   1.925       .  S
C2149      C2150   1.402       .  A
C2149     Br2156   1.958       .  S
C2150     Br2155   1.949   1_565  S
C2151      C2152   1.394       .  A
C2152     Br2153   1.935       .  S
C2157      C2158   1.453       .  A
C2157      C2162   1.397       .  A
C2157     Br2164   1.934       .  S
C2158      C2159   1.457       .  A
C2159      C2160   1.427       .  A
C2159     Br2166   1.934       .  S
C2160      C2161   1.406       .  A
C2160     Br2165   1.940       .  S
C2161      C2162   1.397       .  A
C2162     Br2163   1.944       .  S
C2167      C2168   1.390       .  A
C2167      C2172   1.411       .  A
C2167     Br2174   1.946       .  S
C2168      C2169   1.390       .  A
C2169      C2170   1.415       .  A
C2169     Br2176   1.939       .  S
C2170      C2171   1.451       .  A
C2170     Br2175   1.912       .  S
C2171      C2172   1.464       .  A
C2172     Br2173   1.942   1_565  S
