geometry optimzed in LAMMPS
_audit_creation_date              2020-12-01 
_audit_creation_method            'lammps2cif' 
_symmetry_space_group_name_H-M    'P1' 
_symmetry_Int_Tables_number       1 
_symmetry_cell_setting            triclinic 
loop_ 
_symmetry_equiv_pos_as_xyz 
  x,y,z 
_cell_length_a                    99.46335634 
_cell_length_b                    99.47806038109027 
_cell_length_c                    41.86768652936751 
_cell_angle_alpha                 89.95211058624663 
_cell_angle_beta                  90.17334045407733 
_cell_angle_gamma                 140.1225459382668 
loop_ 
_atom_site_label 
_atom_site_type_symbol 
_atom_site_fract_x 
_atom_site_fract_y 
_atom_site_fract_z 
_atom_site_charge 
N1          N  0.47233958  0.90674142  0.49141061    -0.03300
C2          C  0.46866825  0.91716590  0.48572470    -0.00700
C3          C  0.46590237  0.92440116  0.01202352    -0.23600
C4          C  0.46610382  0.91531516  0.03634819    -0.23800
C5          C  0.47259448  0.90825902  0.02325428    -0.00800
H6          H  0.46311473  0.93294534  0.01445528     0.13000
H7          H  0.46264553  0.91461343  0.06120435     0.13000
N8          N  0.38993830  0.42992177  0.02883408    -0.03300
C9          C  0.39088300  0.41752272  0.03751179    -0.00700
C10         C  0.38119277  0.40108706  0.50399935    -0.23600
C11         C  0.37332034  0.40388822  0.48177655    -0.23800
C12         C  0.37891194  0.42186165  0.00109020    -0.00800
H13         H  0.38272131  0.39150275  0.50090729     0.13000
H14         H  0.36745754  0.39683365  0.45826276     0.13000
N15         N  0.47356626  0.83590400  0.25582214    -0.36400
N16         N  0.46320987  0.80855608  0.30558715    -0.57000
N17         N  0.44821483  0.77838310  0.25819341    -0.36400
N18         N  0.45718215  0.80456633  0.20831959    -0.57000
C19         C  0.47470636  0.84468654  0.28216472     0.27200
C20         C  0.47189632  0.84281393  0.23003071     0.27200
C21         C  0.44021251  0.76676642  0.28505447     0.27200
C22         C  0.43764369  0.76484903  0.23336464     0.27200
C23         C  0.47366526  0.82574623  0.32321255     0.35800
C24         C  0.46062647  0.79565923  0.32438762     0.35800
C25         C  0.46494280  0.82000015  0.18850279     0.35800
C26         C  0.45230401  0.79010247  0.18988882     0.35800
C27         C  0.47439415  0.85783181  0.27287224    -0.21700
C28         C  0.47279120  0.85677866  0.24002090    -0.21700
C29         C  0.42434291  0.74562618  0.27715896    -0.21700
C30         C  0.42280839  0.74442869  0.24445880    -0.21700
C31         C  0.47798486  0.82387902  0.35330240    -0.22700
C32         C  0.46982101  0.80482638  0.35396800    -0.22700
C33         C  0.46476625  0.81516100  0.15728751    -0.22700
C34         C  0.45691635  0.79629854  0.15822947    -0.22700
C35         C  0.47626150  0.84133173  0.31428935    -0.18100
C36         C  0.47010654  0.83724470  0.19770205    -0.18100
C37         C  0.44193862  0.77051855  0.20090108    -0.18100
C38         C  0.44786262  0.77480111  0.31629175    -0.18100
H39         H  0.47520443  0.86721107  0.28814358     0.14800
H40         H  0.47212860  0.86518968  0.22523860     0.14800
H41         H  0.41502287  0.73242433  0.29324942     0.14800
H42         H  0.41206484  0.73015617  0.23042688     0.14800
H43         H  0.48551225  0.83476650  0.37306999     0.13100
H44         H  0.46977657  0.79807032  0.37430914     0.13100
H45         H  0.46936385  0.82402715  0.13590592     0.13100
H46         H  0.45427676  0.78780626  0.13782907     0.13100
H47         H  0.47537240  0.82691172  0.25525290     0.26400
H48         H  0.46178415  0.79455759  0.25660592     0.26400
O49         O  0.35667865  0.64344839  0.46717287    -0.85100
O50         O  0.31525372  0.60986800  0.48757443    -0.82200
C51         C  0.30733465  0.59465905  0.47048978     0.98300
O52         O  0.31365257  0.58756933  0.47305054    -0.82200
O53         O  0.33912736  0.58577570  0.48822920    -0.84900
C54         C  0.35488644  0.59780210  0.46995089     1.02900
O55         O  0.36845561  0.61744558  0.47168467    -0.77600
O56         O  0.38512519  0.65531739  0.48481426    -0.77800
C57         C  0.37609909  0.65608132  0.46494052     1.02800
O58         O  0.36768715  0.65451994  0.02838744    -0.85100
O59         O  0.32731795  0.61872775  0.04754496    -0.82200
C60         C  0.31047386  0.59949869  0.05229219     0.98300
O61         O  0.30603434  0.58576412  0.03591086    -0.82200
O62         O  0.33449647  0.58758193  0.05086362    -0.84800
C63         C  0.35141228  0.59402430  0.05147552     1.02800
O64         O  0.36592794  0.60783956  0.03207233    -0.77700
O65         O  0.37891103  0.64379946  0.04712002    -0.77800
C66         C  0.37881883  0.65642789  0.04782147     1.02800
Cr67       Cr  0.34130011  0.62926921  0.00566645     1.93700
Cr68       Cr  0.32427001  0.58746051  0.00996392     1.93200
Cr69       Cr  0.37167233  0.62880275  0.00660042     1.39100
O70         O  0.34568889  0.61511566  0.00748555    -1.22900
N71         N  0.38364247  0.49769740  0.26180324    -0.36400
N72         N  0.38344987  0.51738081  0.21112083    -0.57000
N73         N  0.37534517  0.53189255  0.25838587    -0.36400
N74         N  0.37760757  0.51415903  0.30920471    -0.57000
C75         C  0.39174701  0.49662827  0.23748490     0.27200
C76         C  0.38772083  0.49407950  0.28919177     0.27200
C77         C  0.37942767  0.54248224  0.23219366     0.27200
C78         C  0.37747090  0.54171363  0.28395489     0.27200
C79         C  0.38341540  0.50605496  0.19325953     0.35800
C80         C  0.37777778  0.52317573  0.19143289     0.35800
C81         C  0.37422577  0.50066067  0.32767507     0.35800
C82         C  0.37073518  0.51960344  0.32599963     0.35800
C83         C  0.40114602  0.49233491  0.24960592    -0.21700
C84         C  0.39849945  0.49060859  0.28224812    -0.21700
C85         C  0.38417294  0.55919688  0.24111058    -0.21700
C86         C  0.38319716  0.55887206  0.27384732    -0.21700
C87         C  0.37799021  0.50492383  0.16194291    -0.22700
C88         C  0.37442110  0.51580101  0.16080299    -0.22700
C89         C  0.36522627  0.49757018  0.35639640    -0.22700
C90         C  0.36304805  0.50962131  0.35534035    -0.22700
C91         C  0.38929914  0.49770244  0.20457418    -0.18100
C92         C  0.38068373  0.49243267  0.31994657    -0.18100
C93         C  0.37251352  0.53443930  0.31577206    -0.18100
C94         C  0.37703093  0.53624660  0.20042313    -0.18100
H95         H  0.40865940  0.49015072  0.23622383     0.14800
H96         H  0.40368215  0.48695037  0.29893432     0.14800
H97         H  0.38768973  0.57030931  0.22562855     0.14800
H98         H  0.38581666  0.56969896  0.28845247     0.14800
H99         H  0.37678803  0.49714295  0.14196746     0.13100
H100        H  0.37011891  0.51823317  0.13979502     0.13100
H101        H  0.36088098  0.48782624  0.37619572     0.13100
H102        H  0.35662891  0.51094344  0.37405985     0.13100
H103        H  0.37362271  0.49819283  0.25959044     0.26400
H104        H  0.36866697  0.51723996  0.25833193     0.26400
N105        N  0.13853832  0.52352442  0.26306796    -0.36400
N106        N  0.16630159  0.53563880  0.21180009    -0.57000
N107        N  0.19359721  0.54482743  0.25886645    -0.36400
N108        N  0.16553375  0.53140164  0.30987112    -0.57000
C109        C  0.12623371  0.51640633  0.23720477     0.27200
C110        C  0.12630601  0.51505214  0.28940512     0.27200
C111        C  0.20162309  0.54576602  0.23175017     0.27200
C112        C  0.20098348  0.54300491  0.28335639     0.27200
C113        C  0.15313341  0.53337249  0.19470403     0.35800
C114        C  0.18293535  0.54583110  0.19279835     0.35800
C115        C  0.15295466  0.52860480  0.32999067     0.35800
C116        C  0.18190713  0.53954031  0.32754276     0.35800
C117        C  0.10595511  0.50351834  0.24726245    -0.21700
C118        C  0.10602254  0.50274852  0.28016210    -0.21700
C119        C  0.21407995  0.54430360  0.23906261    -0.21700
C120        C  0.21374963  0.54265583  0.27172118    -0.21700
C121        C  0.16131963  0.54191329  0.16449134    -0.22700
C122        C  0.18031152  0.54999792  0.16341375    -0.22700
C123        C  0.16125338  0.53467623  0.36068984    -0.22700
C124        C  0.17967186  0.54175021  0.35905807    -0.22700
C125        C  0.13309061  0.52222319  0.20498815    -0.18100
C126        C  0.13330021  0.51909620  0.32152982    -0.18100
C127        C  0.19816271  0.54376206  0.31600034    -0.18100
C128        C  0.19966690  0.55003001  0.20106461    -0.18100
H129        H  0.09254424  0.49570232  0.23246759     0.14800
H130        H  0.09265996  0.49420826  0.29548005     0.14800
H131        H  0.22299496  0.54501204  0.22263996     0.14800
H132        H  0.22232854  0.54180787  0.28542121     0.14800
H133        H  0.15428710  0.54216655  0.14512060     0.13100
H134        H  0.19075386  0.55766883  0.14311683     0.13100
H135        H  0.15467877  0.53387353  0.38221569     0.13100
H136        H  0.19003927  0.54752423  0.37892129     0.13100
H137        H  0.15476580  0.53520532  0.26292548     0.26400
H138        H  0.18618951  0.54840749  0.26094808     0.26400
N139        N  0.03947485  0.48125666  0.02586586    -0.03300
C140        C  0.02232415  0.47562218  0.03222820    -0.00700
C141        C  0.00694519  0.46192902  0.50722745    -0.23600
C142        C  0.01561389  0.45965376  0.48602475    -0.23800
C143        C  0.03569881  0.47201356  0.99781900    -0.00800
H144        H  0.99312926  0.45741266  0.50307890     0.13000
H145        H  0.00971099  0.45304038  0.46226497     0.13000
N146        N  0.98737082  0.54890045  0.02643632    -0.03300
C147        C  0.00472503  0.55469216  0.03229636    -0.00700
C148        C  0.02075311  0.57041454  0.01182369    -0.23600
C149        C  0.01388932  0.57388144  0.49490422    -0.23800
C150        C  0.99224811  0.56043605  0.00076911    -0.00800
H151        H  0.03627667  0.57609767  0.51276009     0.13000
H152        H  0.02177239  0.58371629  0.47388377     0.13000
N153        N  0.51172162  0.44013643  0.03047771    -0.03300
C154        C  0.50394722  0.44685219  0.03230938    -0.00700
C155        C  0.50928398  0.45825017  0.00545148    -0.23600
C156        C  0.51300338  0.45031335  0.48265572    -0.23800
C157        C  0.52154725  0.44702424  0.00175149    -0.00800
H158        H  0.49371925  0.45291667  0.49500836     0.13000
H159        H  0.51639800  0.45465068  0.45767667     0.13000
N160        N  0.89094276  0.50963095  0.26488790    -0.36400
N161        N  0.86009323  0.49114166  0.31550343    -0.57000
N162        N  0.82779701  0.47017379  0.26805672    -0.36400
N163        N  0.85777825  0.48682954  0.21753419    -0.57000
C164        C  0.90245461  0.51531192  0.29110707     0.27200
C165        C  0.90104325  0.51239808  0.23899081     0.27200
C166        C  0.81589655  0.46025387  0.29466418     0.27200
C167        C  0.81472574  0.45891848  0.24282502     0.27200
C168        C  0.87779348  0.50476519  0.33320612     0.35800
C169        C  0.84449060  0.48328310  0.33496861     0.35800
C170        C  0.87391983  0.49691664  0.19739100     0.35800
C171        C  0.84116269  0.47757385  0.19917521     0.35800
C172        C  0.92051381  0.52252391  0.28167381    -0.21700
C173        C  0.91970404  0.52083826  0.24888911    -0.21700
C174        C  0.79500238  0.44264403  0.28616252    -0.21700
C175        C  0.79423978  0.44190559  0.25345633    -0.21700
C176        C  0.87339218  0.50565187  0.36405474    -0.22700
C177        C  0.85225595  0.49196998  0.36516764    -0.22700
C178        C  0.86730319  0.49362920  0.16604370    -0.22700
C179        C  0.84666671  0.48159864  0.16722098    -0.22700
C180        C  0.89727181  0.51436621  0.32330503    -0.18100
C181        C  0.89413552  0.50787940  0.20664411    -0.18100
C182        C  0.82059348  0.46399230  0.21041344    -0.18100
C183        C  0.82311413  0.46722865  0.32638926    -0.18100
H184        H  0.93300640  0.52836930  0.29682147     0.14800
H185        H  0.93151981  0.52522818  0.23412071     0.14800
H186        H  0.78160904  0.43157222  0.30185640     0.14800
H187        H  0.78013628  0.43010411  0.23920606     0.14800
H188        H  0.88420128  0.51477216  0.38395421     0.13100
H189        H  0.84354230  0.48851933  0.38592444     0.13100
H190        H  0.87621277  0.49899874  0.14440110     0.13100
H191        H  0.83667459  0.47589441  0.14678758     0.13100
H192        H  0.87768739  0.50550464  0.26465973     0.26400
H193        H  0.84348536  0.48497557  0.26688936     0.26400
N194        N  0.55330958  0.40397264  0.26466324    -0.36400
N195        N  0.56895199  0.39674162  0.31075851    -0.57000
N196        N  0.57996023  0.38741734  0.25903505    -0.36400
N197        N  0.56298703  0.39282825  0.21259556    -0.57000
C198        C  0.54547715  0.40293321  0.29231568     0.27200
C199        C  0.54165758  0.40012441  0.24041656     0.27200
C200        C  0.58191168  0.38052090  0.28422682     0.27200
C201        C  0.58022512  0.37995809  0.23250384     0.27200
C202        C  0.56768037  0.40678221  0.32940882     0.35800
C203        C  0.58107158  0.39712444  0.32666475     0.35800
C204        C  0.55763936  0.39971355  0.19545635     0.35800
C205        C  0.57339894  0.39253668  0.19252806     0.35800
C206        C  0.52855888  0.39824405  0.28552333    -0.21700
C207        C  0.52621662  0.39657582  0.25276064    -0.21700
C208        C  0.58319330  0.36832874  0.27360989    -0.21700
C209        C  0.58221485  0.36804664  0.24085607    -0.21700
C210        C  0.57927341  0.41377658  0.35719314    -0.22700
C211        C  0.58751987  0.40736974  0.35562432    -0.22700
C212        C  0.56436300  0.40345211  0.16414093    -0.22700
C213        C  0.57440596  0.39893657  0.16232463    -0.22700
C214        C  0.55411770  0.40732858  0.32318104    -0.18100
C215        C  0.54580513  0.40155309  0.20744070    -0.18100
C216        C  0.58106231  0.38558500  0.20104621    -0.18100
C217        C  0.58526980  0.38721372  0.31598742    -0.18100
H218        H  0.51906334  0.39649002  0.30237136     0.14800
H219        H  0.51466118  0.39341646  0.23946853     0.14800
H220        H  0.58546606  0.36111045  0.28788470     0.14800
H221        H  0.58344625  0.36045654  0.22495086     0.14800
H222        H  0.58120802  0.42219416  0.37688778     0.13100
H223        H  0.59709381  0.40989756  0.37370513     0.13100
H224        H  0.56224247  0.40883854  0.14462125     0.13100
H225        H  0.58145762  0.40005293  0.14118778     0.13100
H226        H  0.56733711  0.40949507  0.26220798     0.26400
H227        H  0.58168105  0.39912753  0.25956801     0.26400
O228        O  0.69669101  0.38657163  0.48854323    -0.85100
O229        O  0.66099599  0.37321897  0.47162294    -0.82200
C230        C  0.64181137  0.36140857  0.46930489     0.98300
O231        O  0.62851611  0.34585295  0.48767827    -0.82200
O232        O  0.62732424  0.31778821  0.47275544    -0.84900
C233        C  0.63288952  0.30990052  0.47146417     1.02900
O234        O  0.64693345  0.31636556  0.49023499    -0.77600
O235        O  0.68403892  0.35744774  0.47297937    -0.77800
C236        C  0.69771194  0.37708059  0.47081820     1.02800
O237        O  0.68946061  0.38425849  0.05402607    -0.85100
O238        O  0.65601304  0.37500523  0.03898582    -0.82200
C239        C  0.64161926  0.36074847  0.05817611     0.98300
O240        O  0.63290667  0.34271974  0.05584011    -0.82200
O241        O  0.62737495  0.31183098  0.03970643    -0.84800
C242        C  0.63971295  0.31485836  0.05773572     1.02800
O243        O  0.65928848  0.33079146  0.05447936    -0.77700
O244        O  0.69744901  0.37033283  0.03645088    -0.77800
C245        C  0.70086656  0.38266203  0.05519761     1.02800
Cr246      Cr  0.67551156  0.37865710  0.01342602     1.93700
Cr247      Cr  0.63203266  0.33217785  0.01464914     1.93200
Cr248      Cr  0.67164075  0.34507296  0.01270145     1.39100
O249        O  0.65969792  0.35194037  0.01345327    -1.22900
N250        N  0.54493949  0.13405854  0.25862768    -0.36400
N251        N  0.55471512  0.15983741  0.31062172    -0.57000
N252        N  0.56745959  0.18933837  0.26376396    -0.36400
N253        N  0.55579175  0.16277634  0.21174462    -0.57000
C254        C  0.53646560  0.12086553  0.28355971     0.27200
C255        C  0.53739442  0.12261118  0.23160092     0.27200
C256        C  0.56765355  0.19697920  0.29058792     0.27200
C257        C  0.56846056  0.19868113  0.23884783     0.27200
C258        C  0.55298509  0.14688547  0.32702928     0.35800
C259        C  0.56520700  0.17651099  0.32978513     0.35800
C260        C  0.55441824  0.15091147  0.19243063     0.35800
C261        C  0.56661277  0.18046663  0.19533210     0.35800
C262        C  0.52323048  0.10071331  0.27222805    -0.21700
C263        C  0.52389301  0.10184070  0.23936281    -0.21700
C264        C  0.56856365  0.21120849  0.28264595    -0.21700
C265        C  0.56914812  0.21233701  0.24987395    -0.21700
C266        C  0.56222514  0.15528092  0.35693634    -0.22700
C267        C  0.56992065  0.17406432  0.35870490    -0.22700
C268        C  0.56399146  0.16091869  0.16338105    -0.22700
C269        C  0.57161562  0.17962198  0.16517621    -0.22700
C270        C  0.54204348  0.12702246  0.31598553    -0.18100
C271        C  0.54410577  0.13090039  0.20035921    -0.18100
C272        C  0.57136289  0.19703700  0.20687696    -0.18100
C273        C  0.56982127  0.19348106  0.32176133    -0.18100
H274        H  0.51448206  0.08676933  0.28617472     0.14800
H275        H  0.51575751  0.08895766  0.22302338     0.14800
H276        H  0.56955414  0.22043353  0.29880992     0.14800
H277        H  0.57063172  0.22256098  0.23582593     0.14800
H278        H  0.56330271  0.14858343  0.37555508     0.13100
H279        H  0.57808187  0.18471073  0.37887541     0.13100
H280        H  0.56547507  0.15542902  0.14303714     0.13100
H281        H  0.58000241  0.19130801  0.14651740     0.13100
H282        H  0.55742517  0.15032091  0.25989257     0.26400
H283        H  0.57001639  0.18100017  0.26265863     0.26400
N284        N  0.54904979  0.06696792  0.49484341    -0.03300
C285        C  0.55322563  0.05703549  0.48885077    -0.00700
C286        C  0.56548418  0.06030761  0.00951994    -0.23600
C287        C  0.57065827  0.07420406  0.03093603    -0.23800
C288        C  0.55931333  0.07670663  0.02201073    -0.00800
H289        H  0.56977536  0.05310273  0.01143162     0.13000
H290        H  0.57995901  0.08012211  0.05241764     0.13000
C291        C  0.53717982  0.11248785  0.33941567    -0.19700
C292        C  0.52452287  0.10514641  0.36660001     0.36600
C293        C  0.52420232  0.09538234  0.39124667    -0.25600
C294        C  0.53565735  0.09221452  0.38888849     0.03000
C295        C  0.54653054  0.09755867  0.36052117     0.27800
C296        C  0.54738158  0.10789184  0.33615151    -0.24800
N297        N  0.51212869  0.10761019  0.37018592    -0.82100
H298        H  0.51549239  0.09083673  0.41283669     0.13600
C299        C  0.53815845  0.08560796  0.41749794     0.03000
N300        N  0.55676317  0.09262175  0.35672274    -0.80700
H301        H  0.55675145  0.11317721  0.31508908     0.18400
C302        C  0.52256646  0.06437323  0.42584990    -0.25600
C303        C  0.52524061  0.05787432  0.45233579     0.36500
C304        C  0.54400810  0.07280731  0.47026207    -0.19600
C305        C  0.55910137  0.09413690  0.46241666    -0.24800
C306        C  0.55624344  0.10072655  0.43663142     0.27800
H307        H  0.50834403  0.05282223  0.41168546     0.13600
N308        N  0.50873494  0.03624628  0.46115663    -0.82100
H309        H  0.57352722  0.10571798  0.47598792     0.18400
N310        N  0.57147580  0.12272677  0.43009137    -0.80700
H311        H  0.49535642  0.03171201  0.46584755     0.34100
H312        H  0.50544048  0.02753365  0.44158605     0.38600
H313        H  0.58347508  0.13177281  0.44717815     0.34000
H314        H  0.57851697  0.12601119  0.40819356     0.30700
H315        H  0.56367796  0.09725467  0.33417372     0.34000
H316        H  0.56895731  0.10133021  0.37336395     0.30700
H317        H  0.51242015  0.11378962  0.34966251     0.38600
H318        H  0.51865142  0.11825350  0.38879622     0.34100
C319        C  0.55547520  0.08512743  0.04370662    -0.19700
C320        C  0.57205986  0.10531031  0.05682587     0.36600
C321        C  0.56806492  0.11127387  0.08172318    -0.25600
C322        C  0.54782673  0.09704520  0.09460393     0.03000
C323        C  0.53101132  0.07679659  0.08083059     0.27800
C324        C  0.53502879  0.07141666  0.05486476    -0.24800
N325        N  0.59296322  0.11964780  0.04512426    -0.82100
H326        H  0.58096990  0.12687817  0.09181253     0.13600
C327        C  0.54512688  0.10363613  0.12304269     0.03000
N328        N  0.51001415  0.06093651  0.09333721    -0.80700
H329        H  0.52227279  0.05573638  0.04495694     0.18400
C330        C  0.53181417  0.10464410  0.12142860    -0.25600
C331        C  0.52984047  0.11186681  0.14756442     0.36500
C332        C  0.54209074  0.11899713  0.17512157    -0.19600
C333        C  0.55489227  0.11741307  0.17710835    -0.24800
C334        C  0.55639892  0.10961034  0.15141425     0.27800
H335        H  0.52314867  0.09998052  0.09961613     0.13600
N336        N  0.51609355  0.11274788  0.14597126    -0.82100
H337        H  0.56428111  0.12297795  0.19839201     0.18400
N338        N  0.56965737  0.10812792  0.15368784    -0.80700
H339        H  0.50828655  0.10703563  0.12397305     0.34100
H340        H  0.50459198  0.10262915  0.16343917     0.38600
H341        H  0.57701596  0.11335639  0.17602595     0.34000
H342        H  0.56002964  0.09225806  0.15211399     0.30700
H343        H  0.50617987  0.04818286  0.10013858     0.34000
H344        H  0.50893620  0.06581396  0.11411240     0.30700
H345        H  0.60248667  0.12396807  0.06423251     0.38600
H346        H  0.59831067  0.13309140  0.03708656     0.34100
C347        C  0.57853889  0.20923718  0.34641031    -0.19700
C348        C  0.59995085  0.22896170  0.34613879     0.36600
C349        C  0.60766778  0.24446788  0.36753834    -0.25600
C350        C  0.59427516  0.24058885  0.38922209     0.03000
C351        C  0.57274269  0.22052783  0.39005944     0.27800
C352        C  0.56512718  0.20509518  0.36840717    -0.24800
N353        N  0.61378480  0.23329940  0.32377596    -0.82100
H354        H  0.62417562  0.25972788  0.36699780     0.13600
C355        C  0.60348973  0.25782831  0.41073055     0.03000
N356        N  0.55823058  0.21525658  0.41227901    -0.80700
H357        H  0.54859574  0.18988110  0.36839455     0.18400
C358        C  0.59907112  0.26808932  0.40584444    -0.25600
C359        C  0.60823637  0.28508287  0.42526209     0.36500
C360        C  0.62246672  0.29213880  0.44966843    -0.19600
C361        C  0.62681916  0.28170290  0.45411740    -0.24800
C362        C  0.61742219  0.26462022  0.43505645     0.27800
H363        H  0.58840122  0.26275655  0.38680650     0.13600
N364        N  0.60331185  0.29522396  0.41986753    -0.82100
H365        H  0.63750002  0.28671719  0.47282297     0.18400
N366        N  0.62201234  0.25414392  0.44015591    -0.80700
H367        H  0.59375948  0.28897393  0.39967470     0.34100
H368        H  0.59434274  0.29161682  0.43920840     0.38600
H369        H  0.63276000  0.26118966  0.45886085     0.34000
H370        H  0.60813885  0.23880738  0.44736548     0.30700
H371        H  0.55246209  0.20307333  0.42664201     0.34000
H372        H  0.56559590  0.22766344  0.42769766     0.30700
H373        H  0.62571233  0.23765577  0.33664860     0.38600
H374        H  0.62062224  0.24608077  0.30984877     0.34100
C375        C  0.63076674  0.29837024  0.08036430    -0.19700
C376        C  0.63608807  0.30246490  0.11303096     0.36600
C377        C  0.62635841  0.28569357  0.13342267    -0.25600
C378        C  0.61171377  0.26516580  0.12149805     0.03000
C379        C  0.60661107  0.26120805  0.08873994     0.27800
C380        C  0.61601351  0.27785276  0.06858168    -0.24800
N381        N  0.65047839  0.32332142  0.12553841    -0.82100
H382        H  0.62998518  0.28854064  0.15873039     0.13600
C383        C  0.60148932  0.24783217  0.14361194     0.03000
N384        N  0.59199899  0.24033384  0.07611817    -0.80700
H385        H  0.61201452  0.27486998  0.04339853     0.18400
C386        C  0.57957549  0.23124078  0.14645414    -0.25600
C387        C  0.56918480  0.21432446  0.16671537     0.36500
C388        C  0.58113862  0.21428981  0.18492722    -0.19600
C389        C  0.60303959  0.23091950  0.18227190    -0.24800
C390        C  0.61336881  0.24764841  0.16147566     0.27800
H391        H  0.57047387  0.23145789  0.13277020     0.13600
N392        N  0.54668637  0.19773866  0.16842415    -0.82100
H393        H  0.61202408  0.23063853  0.19621280     0.18400
N394        N  0.63577929  0.26428287  0.15806804    -0.80700
H395        H  0.54075379  0.19061264  0.14593213     0.34100
H396        H  0.54061776  0.18610277  0.18454161     0.38600
H397        H  0.64214061  0.26177542  0.17300962     0.34000
H398        H  0.63898861  0.26378117  0.13463524     0.30700
H399        H  0.58989857  0.24012655  0.05155615     0.34000
H400        H  0.59863681  0.23589198  0.07903792     0.30700
H401        H  0.66528783  0.33259617  0.11616063     0.38600
H402        H  0.65185484  0.32339109  0.15032443     0.34100
C403        C  0.59081036  0.38423777  0.17672686    -0.19700
C404        C  0.61236736  0.39784159  0.17849057     0.36600
C405        C  0.62078824  0.39414751  0.15931200    -0.25600
C406        C  0.60804713  0.37715552  0.13799645     0.03000
C407        C  0.58652190  0.36407966  0.13497266     0.27800
C408        C  0.57813453  0.36764417  0.15478493    -0.24800
N409        N  0.62560205  0.41513876  0.20038393    -0.82100
H410        H  0.63730492  0.40438903  0.16146469     0.13600
C411        C  0.61770858  0.37359137  0.11924485     0.03000
N412        N  0.57273505  0.34712980  0.11229869    -0.80700
H413        H  0.56151739  0.35712494  0.15354224     0.18400
C414        C  0.61119850  0.35527114  0.12407589    -0.25600
C415        C  0.61928363  0.35091479  0.10544658     0.36500
C416        C  0.63423860  0.36529143  0.08152078    -0.19600
C417        C  0.64156384  0.38420561  0.07826114    -0.24800
C418        C  0.63334714  0.38840226  0.09663186     0.27800
H419        H  0.59950673  0.34420301  0.14212557     0.13600
N420        N  0.61218672  0.33192503  0.11058683    -0.82100
H421        H  0.65325474  0.39555160  0.06042947     0.18400
N422        N  0.64047205  0.40744383  0.09193284    -0.80700
H423        H  0.60089227  0.32295165  0.12861337     0.34100
H424        H  0.62499321  0.33617426  0.11890348     0.38600
H425        H  0.65215101  0.41677080  0.07449108     0.34000
H426        H  0.62782246  0.40332291  0.08311548     0.30700
H427        H  0.56708639  0.35027716  0.09696233     0.34000
H428        H  0.58067337  0.34642414  0.09777100     0.30700
H429        H  0.63759603  0.42889926  0.18730320     0.38600
H430        H  0.63243351  0.41339757  0.21593317     0.34100
C431        C  0.63468528  0.36632376  0.44658953    -0.19700
C432        C  0.62043317  0.36539444  0.45648310     0.36600
C433        C  0.61320164  0.36934653  0.43436116    -0.25600
C434        C  0.61946665  0.37370957  0.40233704     0.03000
C435        C  0.63394618  0.37491125  0.39243977     0.27800
C436        C  0.64170819  0.37154781  0.41489434    -0.24800
N437        N  0.61356446  0.36069907  0.48912237    -0.82100
H438        H  0.60253476  0.36897485  0.44212343     0.13600
C439        C  0.61051441  0.37683822  0.37972823     0.03000
N440        N  0.64030960  0.37904966  0.35958601    -0.80700
H441        H  0.65266378  0.37225424  0.40743343     0.18400
C442        C  0.62401085  0.39523241  0.36142021    -0.25600
C443        C  0.61604835  0.39885943  0.34059405     0.36500
C444        C  0.59422197  0.38418965  0.33863650    -0.19600
C445        C  0.58066428  0.36585949  0.35689793    -0.24800
C446        C  0.58857173  0.36185429  0.37713009     0.27800
H447        H  0.64084077  0.40688081  0.36340938     0.13600
N448        N  0.63038309  0.41749563  0.32156398    -0.82100
H449        H  0.56388406  0.35448201  0.35475820     0.18400
N450        N  0.57444800  0.34254184  0.39471741    -0.80700
H451        H  0.62678333  0.41312062  0.29748776     0.34100
H452        H  0.62818404  0.42600192  0.32658617     0.38600
H453        H  0.55887158  0.33327781  0.39015439     0.34000
H454        H  0.57632477  0.33416429  0.38629808     0.30700
H455        H  0.65098486  0.37939005  0.35628952     0.34000
H456        H  0.62703267  0.36650777  0.34597249     0.30700
H457        H  0.60289717  0.36037137  0.49239444     0.38600
H458        H  0.62667593  0.37303703  0.50310938     0.34100
C459        C  0.71623494  0.38979524  0.44977272    -0.19700
C460        C  0.71608519  0.38170414  0.42185885     0.36600
C461        C  0.73451666  0.39479589  0.40351784    -0.25600
C462        C  0.75291775  0.41569271  0.41258089     0.03000
C463        C  0.75317478  0.42361935  0.44064953     0.27800
C464        C  0.73483654  0.41070367  0.45873515    -0.24800
N465        N  0.69724697  0.36048318  0.41193024    -0.82100
H466        H  0.73447088  0.38885597  0.38178001     0.13600
C467        C  0.77170482  0.42954284  0.39197941     0.03000
N468        N  0.77214686  0.44477677  0.45069285    -0.80700
H469        H  0.73521689  0.41697540  0.48034611     0.18400
C470        C  0.77804728  0.44609569  0.37596260    -0.25600
C471        C  0.79558500  0.45954164  0.35594672     0.36500
C472        C  0.80701592  0.45624240  0.35175982    -0.19600
C473        C  0.80106522  0.44009314  0.36863249    -0.24800
C474        C  0.78348460  0.42669005  0.38879892     0.27800
H475        H  0.76908011  0.44839660  0.37872195     0.13600
N476        N  0.80091569  0.47589897  0.33966070    -0.82100
H477        H  0.80976930  0.43753442  0.36515413     0.18400
N478        N  0.77736811  0.41006208  0.40574208    -0.80700
H479        H  0.80448908  0.48582219  0.35707280     0.34100
H480        H  0.81442129  0.48518148  0.32591476     0.38600
H481        H  0.78761859  0.41001794  0.40064870     0.34000
H482        H  0.77889664  0.41321332  0.43016544     0.30700
H483        H  0.76972251  0.44823499  0.47188517     0.34000
H484        H  0.78319003  0.44578181  0.45589662     0.30700
H485        H  0.69986648  0.35700987  0.39102571     0.38600
H486        H  0.68614853  0.35933501  0.40623220     0.34100
C487        C  0.71894008  0.39579856  0.07739102    -0.19700
C488        C  0.73602614  0.40025426  0.07116742     0.36600
C489        C  0.75255008  0.41205462  0.09302233    -0.25600
C490        C  0.75243510  0.41943512  0.12132473     0.03000
C491        C  0.73579703  0.41568648  0.12728376     0.27800
C492        C  0.71926288  0.40402009  0.10506415    -0.24800
N493        N  0.73690033  0.39312210  0.04243720    -0.82100
H494        H  0.76557706  0.41540119  0.08788703     0.13600
C495        C  0.76980988  0.43079511  0.14442017     0.03000
N496        N  0.73556959  0.42338735  0.15605571    -0.80700
H497        H  0.70633228  0.40086541  0.10980207     0.18400
C498        C  0.78168438  0.45100322  0.15447632    -0.25600
C499        C  0.79841444  0.46229738  0.17587698     0.36500
C500        C  0.80371301  0.45331921  0.18671098    -0.19600
C501        C  0.79209650  0.43329147  0.17632160    -0.24800
C502        C  0.77495586  0.42176049  0.15567511     0.27800
H503        H  0.77796121  0.45809644  0.14554886     0.13600
N504        N  0.80964067  0.48274224  0.18582785    -0.82100
H505        H  0.79613459  0.42646628  0.18511332     0.18400
N506        N  0.76257620  0.40081881  0.14640002    -0.80700
H507        H  0.79918974  0.48077738  0.19853782     0.34100
H508        H  0.82193035  0.48988319  0.20142430     0.38600
H509        H  0.76851554  0.39657769  0.15669270     0.34000
H510        H  0.74751777  0.39061345  0.15565534     0.30700
H511        H  0.72232211  0.41940854  0.15666416     0.34000
H512        H  0.73429523  0.41577012  0.17532042     0.30700
H513        H  0.73804305  0.38385656  0.04879333     0.38600
H514        H  0.75051320  0.40621066  0.03008174     0.34100
C515        C  0.51464838  0.43316635  0.05688903    -0.19700
C516        C  0.53506231  0.44472753  0.06584794     0.36600
C517        C  0.53777540  0.43771669  0.09115748    -0.25600
C518        C  0.52064938  0.41986489  0.10882082     0.03000
C519        C  0.50036384  0.40889291  0.10099375     0.27800
C520        C  0.49751060  0.41554483  0.07505867    -0.24800
N521        N  0.55305647  0.46399457  0.04986506    -0.82100
H522        H  0.55344449  0.44644252  0.09751149     0.13600
C523        C  0.52478952  0.41378594  0.13607749     0.03000
N524        N  0.48273107  0.39138669  0.11984949    -0.80700
H525        H  0.48186869  0.40692806  0.06937219     0.18400
C526        C  0.53937733  0.42887541  0.15951602    -0.25600
C527        C  0.54604162  0.42504003  0.18323754     0.36500
C528        C  0.53762984  0.40544807  0.18433408    -0.19600
C529        C  0.52254081  0.39006925  0.16152465    -0.24800
C530        C  0.51628308  0.39418250  0.13719641     0.27800
H531        H  0.54622555  0.44409656  0.15867076     0.13600
N532        N  0.56217716  0.44171594  0.20484276    -0.82100
H533        H  0.51623404  0.37511471  0.16188062     0.18400
N534        N  0.50216212  0.37885701  0.11276888    -0.80700
H535        H  0.55639957  0.43695517  0.22812627     0.34100
H536        H  0.57480744  0.44475061  0.20309410     0.38600
H537        H  0.50884113  0.37561627  0.10163834     0.34000
H538        H  0.48827541  0.36509982  0.12373777     0.30700
H539        H  0.47578084  0.39473843  0.12905579     0.34000
H540        H  0.47183898  0.37838185  0.10474719     0.30700
H541        H  0.55340589  0.47459021  0.05447872     0.38600
H542        H  0.56691793  0.47063208  0.05930756     0.34100
C543        C  0.52539477  0.43619268  0.48406236    -0.19700
C544        C  0.51154729  0.41500553  0.47610651     0.36600
C545        C  0.51686405  0.41008757  0.45174738    -0.25600
C546        C  0.53595794  0.42590027  0.43528476     0.03000
C547        C  0.55061276  0.44695597  0.44524169     0.27800
C548        C  0.54498993  0.45189926  0.46905102    -0.24800
N549        N  0.49134331  0.39827941  0.49065026    -0.82100
H550        H  0.50544777  0.39386676  0.44442591     0.13600
C551        C  0.53977427  0.42042948  0.40635368     0.03000
N552        N  0.57087543  0.46328264  0.43041657    -0.80700
H553        H  0.55550815  0.46818160  0.47482569     0.18400
C554        C  0.54590310  0.43139375  0.37771156    -0.25600
C555        C  0.55053246  0.42740136  0.35020549     0.36500
C556        C  0.54783877  0.41124269  0.35073368    -0.19600
C557        C  0.54036802  0.39938452  0.37878808    -0.24800
C558        C  0.53704444  0.40426575  0.40683360     0.27800
H559        H  0.54747649  0.44344092  0.37699247     0.13600
N560        N  0.55824368  0.43989388  0.32200034    -0.82100
H561        H  0.53804316  0.38681147  0.37918166     0.18400
N562        N  0.53149542  0.39326532  0.43598944    -0.80700
H563        H  0.55912277  0.45096045  0.32547520     0.34100
H564        H  0.57356478  0.44829588  0.31817503     0.38600
H565        H  0.53022825  0.38192965  0.43230584     0.34000
H566        H  0.54382120  0.40412439  0.45218855     0.30700
H567        H  0.57970648  0.47788359  0.44030572     0.34000
H568        H  0.57885556  0.46049305  0.43571336     0.30700
H569        H  0.49346506  0.39865054  0.51522214     0.38600
H570        H  0.48295585  0.40071538  0.48668787     0.34100
C571        C  0.97303861  0.54172562  0.05168212    -0.19700
C572        C  0.95093360  0.52509322  0.04777376     0.36600
C573        C  0.93830393  0.51990354  0.07313082    -0.25600
C574        C  0.94708143  0.53028678  0.10269173     0.03000
C575        C  0.96888972  0.54608141  0.10717934     0.27800
C576        C  0.98159235  0.55184646  0.08158734    -0.24800
N577        N  0.94065479  0.51238916  0.01947186    -0.82100
H578        H  0.92143964  0.50734535  0.06997834     0.13600
C579        C  0.93339789  0.52451966  0.12901399     0.03000
N580        N  0.97801118  0.55592687  0.13791323    -0.80700
H581        H  0.99843163  0.56444234  0.08495298     0.18400
C582        C  0.92452815  0.50833158  0.15002802    -0.25600
C583        C  0.91182013  0.50276962  0.17562302     0.36500
C584        C  0.90843468  0.51403370  0.18076934    -0.19600
C585        C  0.91753778  0.53038957  0.15988225    -0.24800
C586        C  0.92977399  0.53557273  0.13380931     0.27800
H587        H  0.92742707  0.49994264  0.14626278     0.13600
N588        N  0.90233093  0.48575721  0.19644949    -0.82100
H589        H  0.91464160  0.53878425  0.16358713     0.18400
N590        N  0.93812111  0.55165866  0.11172997    -0.80700
H591        H  0.90652619  0.47923100  0.18966547     0.34100
H592        H  0.88607811  0.47400774  0.19355831     0.38600
H593        H  0.93358564  0.55790279  0.11817254     0.34000
H594        H  0.95446148  0.56391338  0.11344761     0.30700
H595        H  0.99422657  0.56682636  0.13747386     0.34000
H596        H  0.97573011  0.56436877  0.14277303     0.30700
H597        H  0.95121429  0.51594017  0.00395719     0.38600
H598        H  0.93400032  0.51553737  0.00776433     0.34100
C599        C  0.97809003  0.55309445  0.47858672    -0.19700
C600        C  0.97307600  0.54060887  0.45279027     0.36600
C601        C  0.95982318  0.53491026  0.42852617    -0.25600
C602        C  0.95146057  0.54149526  0.42892635     0.03000
C603        C  0.95595167  0.55354178  0.45493596     0.27800
C604        C  0.96942070  0.55938079  0.47954376    -0.24800
N605        N  0.98118609  0.53342017  0.45060257    -0.82100
H606        H  0.95626706  0.52548793  0.40881068     0.13600
C607        C  0.93772481  0.53505807  0.40197345     0.03000
N608        N  0.94673153  0.55963140  0.45630556    -0.80700
H609        H  0.96998380  0.56648676  0.99943313     0.18400
C610        C  0.91989110  0.51361688  0.39519959    -0.25600
C611        C  0.90704257  0.50672005  0.36887789     0.36500
C612        C  0.91200127  0.52156217  0.34912820    -0.19600
C613        C  0.92997096  0.54302079  0.35552718    -0.24800
C614        C  0.94296154  0.54987697  0.38169419     0.27800
H615        H  0.91603021  0.50223595  0.41053989     0.13600
N616        N  0.88872475  0.48468493  0.36231722    -0.82100
H617        H  0.93379334  0.55442321  0.34033502     0.18400
N618        N  0.96165721  0.57185215  0.38724936    -0.80700
H619        H  0.88713789  0.47581949  0.37928309     0.34100
H620        H  0.89097727  0.48170318  0.34028119     0.38600
H621        H  0.97102845  0.57835187  0.36688013     0.34000
H622        H  0.95738773  0.57864746  0.39015469     0.30700
H623        H  0.93049712  0.54594776  0.45816264     0.34000
H624        H  0.95162292  0.56842293  0.47693100     0.30700
H625        H  0.99749315  0.54634533  0.44875445     0.38600
H626        H  0.97725755  0.52515218  0.47133513     0.34100
C627        C  0.02287573  0.48840185  0.05177725    -0.19700
C628        C  0.03845353  0.51008735  0.04601445     0.36600
C629        C  0.03557028  0.52104094  0.05675256    -0.25600
C630        C  0.01723863  0.51071694  0.07292852     0.03000
C631        C  0.00272618  0.48952057  0.08179163     0.27800
C632        C  0.00558795  0.47847144  0.07079669    -0.24800
N633        N  0.05615730  0.52061811  0.02633653    -0.82100
H634        H  0.04672847  0.53719114  0.04933080     0.13600
C635        C  0.01142381  0.52073915  0.07284035     0.03000
N636        N  0.98452189  0.47903910  0.10013347    -0.80700
H637        H  0.99367422  0.46180423  0.07530777     0.18400
C638        C  0.99259103  0.50995020  0.05770970    -0.25600
C639        C  0.98927307  0.52053973  0.04693180     0.36500
C640        C  0.00495775  0.54235477  0.05146059    -0.19600
C641        C  0.02286319  0.55282451  0.06945476    -0.24800
C642        C  0.02615953  0.54215432  0.08052630     0.27800
H643        H  0.98035199  0.49228477  0.55565803     0.13600
N644        N  0.97020840  0.50829801  0.53316980    -0.82100
H645        H  0.03483640  0.56958070  0.07323024     0.18400
N646        N  0.04493567  0.55317947  0.09783321    -0.80700
H647        H  0.96921002  0.50099620  0.51367690     0.34100
H648        H  0.95733953  0.49660749  0.54795907     0.38600
H649        H  0.05426387  0.56886780  0.10119126     0.34000
H650        H  0.04043598  0.54645762  0.12053201     0.30700
H651        H  0.97528133  0.46344876  0.10429332     0.34000
H652        H  0.98973927  0.48639887  0.12244485     0.30700
H653        H  0.06976528  0.53320501  0.03937071     0.38600
H654        H  0.05577368  0.52665109  0.00638734     0.34100
C655        C  0.11925818  0.51253439  0.34809708    -0.19700
C656        C  0.10285117  0.49158760  0.35860647     0.36600
C657        C  0.09090676  0.48614470  0.38532828    -0.25600
C658        C  0.09536685  0.50142553  0.40221061     0.03000
C659        C  0.11237203  0.52254236  0.39242896     0.27800
C660        C  0.12388081  0.52785438  0.36516292    -0.24800
N661        N  0.09844479  0.47587442  0.34230647    -0.82100
H662        H  0.07795291  0.46988677  0.39270235     0.13600
C663        C  0.08127469  0.49488049  0.42857484     0.03000
N664        N  0.11829144  0.53868051  0.41060943    -0.80700
H665        H  0.13693875  0.54411834  0.35784741     0.18400
C666        C  0.07767173  0.48361810  0.45491170    -0.25600
C667        C  0.06310637  0.47588427  0.47879937     0.36500
C668        C  0.05209364  0.47975319  0.47634139    -0.19600
C669        C  0.05617847  0.49143855  0.45037973    -0.24800
C670        C  0.07025725  0.49863731  0.42638196     0.27800
H671        H  0.08591080  0.48043633  0.45655226     0.13600
N672        N  0.05940525  0.46361727  0.50419298    -0.82100
H673        H  0.04776872  0.49441551  0.44810749     0.18400
N674        N  0.07256868  0.50890924  0.39896838    -0.80700
H675        H  0.07323168  0.47347851  0.51756799     0.34100
H676        H  0.04395731  0.45045820  0.99670938     0.38600
H677        H  0.05787086  0.49866730  0.38809249     0.34000
H678        H  0.07735299  0.52207504  0.40682587     0.30700
H679        H  0.13379420  0.54927721  0.41822152     0.34000
H680        H  0.11784827  0.54669640  0.39545748     0.30700
H681        H  0.08286388  0.46421365  0.33448054     0.38600
H682        H  0.09989973  0.46912957  0.35875531     0.34100
C683        C  0.05369083  0.48754345  0.05033841    -0.19700
C684        C  0.04567972  0.47484505  0.07755175     0.36600
C685        C  0.05920595  0.48115770  0.10205906    -0.25600
C686        C  0.08083422  0.49993258  0.09989965     0.03000
C687        C  0.08906798  0.51228668  0.07208191     0.27800
C688        C  0.07541194  0.50604132  0.04750036    -0.24800
N689        N  0.02369510  0.45526582  0.08006998    -0.82100
H690        H  0.05273577  0.47136326  0.12304592     0.13600
C691        C  0.09432469  0.50597507  0.12704132     0.03000
N692        N  0.11124757  0.53090014  0.06851592    -0.80700
H693        H  0.08170678  0.51560515  0.02629695     0.18400
C694        C  0.09376750  0.49204607  0.13684540    -0.25600
C695        C  0.10562701  0.49670423  0.16294195     0.36500
C696        C  0.11830903  0.51562755  0.17987684    -0.19600
C697        C  0.11855798  0.52937447  0.17067019    -0.18600
C698        C  0.10653290  0.52465421  0.14450060     0.27800
H699        H  0.08415061  0.47750462  0.12391665     0.13600
N700        N  0.10472297  0.48209084  0.17163003    -0.82100
H701        H  0.12840411  0.54393319  0.18367100     0.18400
N702        N  0.10652234  0.53861884  0.13574447    -0.80700
H703        H  0.11984000  0.48967271  0.17028761     0.34100
H704        H  0.09965827  0.47753082  0.19529459     0.38600
H705        H  0.09134228  0.53065021  0.13920135     0.34000
H706        H  0.11636008  0.55165833  0.15091812     0.30700
H707        H  0.11580752  0.52924898  0.04792054     0.34000
H708        H  0.11435218  0.54349630  0.06501323     0.30700
H709        H  0.01816380  0.45564118  0.10081865     0.38600
H710        H  0.02171686  0.44336665  0.08255107     0.34100
C711        C  0.36964366  0.54326346  0.33941440    -0.19700
C712        C  0.35406308  0.54120064  0.33500964     0.36600
C713        C  0.35276254  0.55101442  0.35631572    -0.25600
C714        C  0.36647698  0.56246448  0.38240341     0.03000
C715        C  0.38148609  0.56383328  0.38780396     0.27800
C716        C  0.38312589  0.55443406  0.36594037    -0.24800
N717        N  0.33951366  0.52907209  0.30896212    -0.82100
H718        H  0.34088563  0.54955088  0.35266429     0.13600
C719        C  0.36412277  0.57197898  0.40477640     0.03000
N720        N  0.39462133  0.57433715  0.41576835    -0.80700
H721        H  0.39497772  0.55585794  0.36946113     0.18400
C722        C  0.34982172  0.55976066  0.42977000    -0.25600
C723        C  0.34657163  0.56784361  0.45118295     0.36500
C724        C  0.35776559  0.58863396  0.44746308    -0.19600
C725        C  0.37226029  0.60090548  0.42235738    -0.24800
C726        C  0.37551805  0.59273740  0.40089786     0.27800
H727        H  0.34111495  0.54380133  0.43268893     0.13600
N728        N  0.33212580  0.55490464  0.47695142    -0.82100
H729        H  0.38095966  0.61684405  0.41929516     0.18400
N730        N  0.38998815  0.60523194  0.37485180    -0.80700
H731        H  0.31742456  0.54134641  0.46722898     0.34100
H732        H  0.33710530  0.55047388  0.49048225     0.38600
H733        H  0.39685420  0.62004907  0.37507946     0.34000
H734        H  0.40214584  0.60767918  0.37841322     0.30700
H735        H  0.40446668  0.57348937  0.41656295     0.34000
H736        H  0.40435388  0.59021157  0.41392127     0.30700
H737        H  0.32436414  0.51719038  0.31840158     0.38600
H738        H  0.34087525  0.53882517  0.29511939     0.34100
C739        C  0.35401907  0.58445179  0.07301111    -0.19700
C740        C  0.36151904  0.57784936  0.06096103     0.36600
C741        C  0.36505774  0.56983081  0.08200908    -0.25600
C742        C  0.36103553  0.56808418  0.11467706     0.03000
C743        C  0.35343300  0.57454407  0.12666493     0.27800
C744        C  0.34973912  0.58247368  0.10566872    -0.24800
N745        N  0.36523034  0.57906431  0.02731151    -0.82100
H746        H  0.37077920  0.56470987  0.07291481     0.13600
C747        C  0.36495505  0.55947015  0.13584151     0.03000
N748        N  0.35002487  0.57359347  0.16021943    -0.80700
H749        H  0.34411537  0.58765190  0.11500008     0.18400
C750        C  0.38550094  0.57039193  0.13953549    -0.25600
C751        C  0.38975683  0.56265342  0.15960427     0.36500
C752        C  0.37309578  0.54363036  0.17586165    -0.19600
C753        C  0.35253083  0.53247870  0.17153868    -0.24800
C754        C  0.34833579  0.54023789  0.15157926     0.27800
H755        H  0.39822731  0.58513375  0.12717172     0.13600
N756        N  0.41090406  0.57432648  0.16458652    -0.82100
H757        H  0.33975897  0.51790325  0.18424697     0.18400
N758        N  0.32720116  0.52854595  0.14717294    -0.80700
H759        H  0.42138707  0.58822438  0.15137253     0.34100
H760        H  0.41195464  0.56535474  0.15564109     0.38600
H761        H  0.31839614  0.51377137  0.13815644     0.34000
H762        H  0.32115517  0.52643902  0.16955431     0.30700
H763        H  0.35941623  0.58875144  0.16814020     0.34000
H764        H  0.33435152  0.56428416  0.16357184     0.30700
H765        H  0.35077870  0.56879345  0.01560987     0.38600
H766        H  0.37088728  0.57375444  0.02244160     0.34100
C767        C  0.21356788  0.55003580  0.33909681    -0.19700
C768        C  0.23392943  0.57109605  0.34099035     0.36600
C769        C  0.24840318  0.57664976  0.36257264    -0.25600
C770        C  0.24271507  0.56158033  0.38249272     0.03000
C771        C  0.22226629  0.54056099  0.38096448     0.27800
C772        C  0.20781125  0.53494068  0.35911427    -0.24800
N773        N  0.23971588  0.58668440  0.32099814    -0.82100
H774        H  0.26411682  0.59280800  0.36417637     0.13600
C775        C  0.25837319  0.56833283  0.40531474     0.03000
N776        N  0.21632779  0.52512620  0.40164517    -0.80700
H777        H  0.19206798  0.51880937  0.35755017     0.18400
C778        C  0.25775191  0.57219671  0.43707638    -0.25600
C779        C  0.27345579  0.58043080  0.45873918     0.36500
C780        C  0.28999654  0.58476799  0.44854703    -0.19600
C781        C  0.29018203  0.58015218  0.41701819    -0.24800
C782        C  0.27452625  0.57207771  0.39515235     0.27800
H783        H  0.24524879  0.56919424  0.44489636     0.13600
N784        N  0.27245333  0.58415024  0.49121391    -0.82100
H785        H  0.30286589  0.58343277  0.40924975     0.18400
N786        N  0.27512730  0.56804260  0.36255534    -0.80700
H787        H  0.25828840  0.56995269  0.50092532     0.34100
H788        H  0.27218955  0.59368064  0.98513883     0.38600
H789        H  0.28811605  0.57180397  0.35883509     0.34000
H790        H  0.26182218  0.55190975  0.35859087     0.30700
H791        H  0.20068100  0.51044300  0.39767247     0.34000
H792        H  0.22539112  0.52372335  0.39547531     0.30700
H793        H  0.23045444  0.58778968  0.32757940     0.38600
H794        H  0.25528885  0.60141356  0.32524176     0.34100
C795        C  0.29498092  0.59303496  0.07515359    -0.19700
C796        C  0.28028485  0.57338901  0.09060561     0.36600
C797        C  0.26448481  0.56709903  0.10937485    -0.25600
C798        C  0.26308409  0.58002424  0.11307550     0.03000
C799        C  0.27804100  0.59984291  0.09818355     0.27800
C800        C  0.29393034  0.60620698  0.07964939    -0.24800
N801        N  0.28156518  0.56000377  0.08744003    -0.82100
H802        H  0.25329414  0.55210568  0.12147389     0.13600
C803        C  0.24634372  0.57287204  0.13364279     0.03000
N804        N  0.27677679  0.61323912  0.10141273    -0.80700
H805        H  0.30508761  0.62123424  0.06765774     0.18400
C806        C  0.25197942  0.58545318  0.15941879    -0.25600
C807        C  0.23690492  0.57875269  0.18056582     0.36500
C808        C  0.21566097  0.55869375  0.17667015    -0.19600
C809        C  0.20985574  0.54635045  0.15030092    -0.24800
C810        C  0.22497141  0.55340590  0.12840260     0.27800
H811        H  0.26830858  0.60049072  0.16349165     0.13600
N812        N  0.24357666  0.59273499  0.20559069    -0.82100
H813        H  0.19353691  0.53109692  0.14706831     0.18400
N814        N  0.21876942  0.54092565  0.10093886    -0.80700
H815        H  0.24059909  0.58599617  0.22768455     0.34100
H816        H  0.23488142  0.59494647  0.20390617     0.38600
H817        H  0.20250518  0.52710905  0.10053901     0.34000
H818        H  0.22253231  0.54943277  0.08063698     0.30700
H819        H  0.28901155  0.62730663  0.08911976     0.34000
H820        H  0.26283419  0.60567010  0.09048710     0.30700
H821        H  0.29566185  0.56773450  0.09796768     0.38600
H822        H  0.26952977  0.54609177  0.10019894     0.34100
C823        C  0.39210195  0.67422061  0.07023882    -0.19700
C824        C  0.40301323  0.69405326  0.05942107     0.36600
C825        C  0.41249845  0.70997169  0.08144551    -0.25600
C826        C  0.41128032  0.70645633  0.11420417     0.03000
C827        C  0.40120000  0.68699084  0.12511041     0.27800
C828        C  0.39180824  0.67100040  0.10297625    -0.24800
N829        N  0.40424724  0.69797729  0.02599012    -0.82100
H830        H  0.42039653  0.72499785  0.07298631     0.13600
C831        C  0.41932108  0.72287064  0.13655033     0.03000
N832        N  0.39964783  0.68315020  0.15863698    -0.80700
H833        H  0.38327444  0.65574498  0.11149393     0.18400
C834        C  0.40886112  0.72722111  0.13863713    -0.25600
C835        C  0.41614394  0.74294006  0.15920032     0.36500
C836        C  0.43436281  0.75461731  0.17751810    -0.19600
C837        C  0.44491163  0.75037456  0.17520552    -0.24800
C838        C  0.43755643  0.73463141  0.15470651     0.27800
H839        H  0.39488211  0.71817142  0.12437979     0.13600
N840        N  0.40513599  0.74705339  0.16175608    -0.82100
H841        H  0.45887036  0.75930841  0.18944006     0.18400
N842        N  0.44876354  0.73081626  0.15193316    -0.80700
H843        H  0.39213201  0.73719105  0.14647266     0.34100
H844        H  0.39931786  0.74329058  0.18500856     0.38600
H845        H  0.46404468  0.74473500  0.14461330     0.34000
H846        H  0.44959352  0.72705496  0.17458924     0.30700
H847        H  0.38374926  0.67036759  0.16449742     0.34000
H848        H  0.40642017  0.67895922  0.16311461     0.30700
H849        H  0.39766130  0.70241530  0.02213485     0.38600
H850        H  0.42008614  0.71060399  0.01972280     0.34100
C851        C  0.38891092  0.67330811  0.44138865    -0.19700
C852        C  0.38119832  0.67071851  0.41077056     0.36600
C853        C  0.39326511  0.68827324  0.39074608    -0.25600
C854        C  0.41265707  0.70826987  0.40100015     0.03000
C855        C  0.42053959  0.71081920  0.43131233     0.27800
C856        C  0.40879600  0.69319998  0.45089107    -0.24800
N857        N  0.36113500  0.65038624  0.40031060    -0.82100
H858        H  0.38727896  0.68652317  0.36744001     0.13600
C859        C  0.42334580  0.72663677  0.38117096     0.03000
N860        N  0.43973836  0.73141574  0.44285413    -0.80700
H861        H  0.41473882  0.69519769  0.47437186     0.18400
C862        C  0.41641198  0.73466210  0.38285456    -0.25600
C863        C  0.42485617  0.75102424  0.36298414     0.36500
C864        C  0.44100729  0.75999982  0.34148296    -0.19600
C865        C  0.44832391  0.75230568  0.34036102    -0.24800
C866        C  0.43944391  0.73546978  0.35977015     0.27800
H867        H  0.40382624  0.72764799  0.39901098     0.13600
N868        N  0.41598272  0.75744123  0.36388379    -0.82100
H869        H  0.46028147  0.75882077  0.32315848     0.18400
N870        N  0.44583868  0.72658462  0.35654771    -0.80700
H871        H  0.42773577  0.77330138  0.37004084     0.34100
H872        H  0.41039941  0.75556012  0.34107586     0.38600
H873        H  0.45732868  0.73448571  0.33892227     0.34000
H874        H  0.45285926  0.72898586  0.37796331     0.30700
H875        H  0.44285872  0.73064643  0.46622016     0.34000
H876        H  0.45201373  0.73723748  0.42883619     0.30700
H877        H  0.36215854  0.64069667  0.39892882     0.38600
H878        H  0.35773915  0.65121213  0.37725403     0.34100
C879        C  0.37795614  0.43196994  0.47197363    -0.19700
C880        C  0.39704685  0.45055525  0.45784944     0.36600
C881        C  0.39704317  0.46026891  0.43380500    -0.25600
C882        C  0.37837813  0.45216579  0.42382404     0.03000
C883        C  0.35926066  0.43382615  0.43850917     0.27800
C884        C  0.35920631  0.42362719  0.46194428    -0.24800
N885        N  0.41658241  0.45940132  0.46651031    -0.82100
H886        H  0.41173352  0.47402834  0.42229706     0.13600
C887        C  0.37915823  0.46272778  0.39730173     0.03000
N888        N  0.34003093  0.42561617  0.42948271    -0.80700
H889        H  0.34610674  0.41063105  0.97821203     0.18400
C890        C  0.36585595  0.45091234  0.37072220    -0.25600
C891        C  0.36632487  0.46040241  0.34520463     0.36500
C892        C  0.38060942  0.48211888  0.34576174    -0.19600
C893        C  0.39424495  0.49407073  0.37185047    -0.24800
C894        C  0.39352296  0.48458598  0.39782608     0.27800
H895        H  0.35504818  0.43422493  0.36972817     0.13600
N896        N  0.35205583  0.44793569  0.31895801    -0.82100
H897        H  0.40515028  0.51079275  0.37217934     0.18400
N898        N  0.40709137  0.49700398  0.42490858    -0.80700
H899        H  0.33678958  0.43645649  0.32796148     0.34100
H900        H  0.35454205  0.44038224  0.30880055     0.38600
H901        H  0.41675929  0.51277751  0.42140626     0.34000
H902        H  0.39762426  0.49191710  0.44457256     0.30700
H903        H  0.32743570  0.41205382  0.44245732     0.34000
H904        H  0.34135535  0.43675970  0.43583297     0.30700
H905        H  0.41927760  0.46317136  0.49080368     0.38600
H906        H  0.41543616  0.44816434  0.46269438     0.34100
C907        C  0.39269585  0.44315766  0.05067886    -0.19700
C908        C  0.37523686  0.43755682  0.06000964     0.36600
C909        C  0.37752112  0.44895431  0.08419638    -0.25600
C910        C  0.39654668  0.46514535  0.10072955     0.03000
C911        C  0.41402523  0.47086066  0.09128555     0.27800
C912        C  0.41206694  0.46016931  0.06594375    -0.24800
N913        N  0.35495037  0.41959557  0.04606546    -0.82100
H914        H  0.36403777  0.44451354  0.09128363     0.13600
C915        C  0.39685824  0.47431915  0.12930675     0.03000
N916        N  0.43346643  0.48670896  0.10835298    -0.80700
H917        H  0.42563837  0.46482376  0.05903059     0.18400
C918        C  0.38104008  0.46056696  0.15230312    -0.25600
C919        C  0.37862613  0.46784568  0.17736089     0.36500
C920        C  0.39282306  0.48955678  0.18060724    -0.19600
C921        C  0.40926966  0.50347333  0.15856203    -0.24800
C922        C  0.41116393  0.49602594  0.13265167     0.27800
H923        H  0.36987704  0.44383771  0.15001480     0.13600
N924        N  0.36089729  0.45272093  0.19798205    -0.82100
H925        H  0.42003844  0.52012416  0.16057721     0.18400
N926        N  0.42685326  0.51043180  0.10893127    -0.80700
H927        H  0.36617810  0.45529203  0.22134162     0.34100
H928        H  0.35204701  0.45477096  0.19715941     0.38600
H929        H  0.42446719  0.51821320  0.09947613     0.34000
H930        H  0.44149586  0.52158169  0.12025472     0.30700
H931        H  0.43707099  0.47994978  0.11741397     0.34000
H932        H  0.44516536  0.49831936  0.09206964     0.30700
H933        H  0.35026991  0.40632887  0.05271317     0.38600
H934        H  0.34379983  0.41764991  0.05540920     0.34100
C935        C  0.40854116  0.42510073  0.05544435    -0.19700
C936        C  0.40519783  0.41317517  0.08018148     0.36600
C937        C  0.42156189  0.41692834  0.08906882    -0.25600
C938        C  0.44108608  0.43253658  0.07373725     0.03000
C939        C  0.44473927  0.44543622  0.05084603     0.27800
C940        C  0.42850070  0.44161260  0.04192253    -0.24800
N941        N  0.38488130  0.39655020  0.09465894    -0.82100
H942        H  0.41868749  0.40680807  0.10629339     0.13600
C943        C  0.45550724  0.43197304  0.07470392     0.03000
N944        N  0.46437333  0.46114926  0.03435857    -0.80700
H945        H  0.43102931  0.45044658  0.02226603     0.18400
C946        C  0.45037733  0.41718642  0.05487836    -0.25600
C947        C  0.46591235  0.42056472  0.04329303     0.36500
C948        C  0.48693923  0.43846669  0.05328724    -0.19600
C949        C  0.49159820  0.45179289  0.07646164    -0.24800
C950        C  0.47603437  0.44884682  0.08706907     0.27800
H951        H  0.43049703  0.39848589  0.54869760     0.13600
N952        N  0.45513029  0.39894788  0.52534392    -0.82100
H953        H  0.50776045  0.46568431  0.08371720     0.18400
N954        N  0.48119374  0.46347372  0.10886738    -0.80700
H955        H  0.46222249  0.40578702  0.50313893     0.34100
H956        H  0.46009047  0.39354864  0.53466358     0.38600
H957        H  0.49689716  0.47482185  0.11595966     0.34000
H958        H  0.47966706  0.47143251  0.09673984     0.30700
H959        H  0.46240581  0.45802712  0.51137765     0.34000
H960        H  0.47055608  0.47553768  0.03750981     0.30700
H961        H  0.38191254  0.40338203  0.10623469     0.38600
H962        H  0.38495233  0.38916466  0.11231973     0.34100
C963        C  0.47521000  0.89910385  0.46634221    -0.19700
C964        C  0.48996015  0.89987219  0.46853340     0.36600
C965        C  0.49119157  0.89124278  0.44366790    -0.25600
C966        C  0.47824433  0.88227589  0.41649012     0.03000
C967        C  0.46408171  0.88223092  0.41389153     0.27800
C968        C  0.46258967  0.89040702  0.43886000    -0.24800
N969        N  0.50377341  0.90961989  0.49558074    -0.82100
H970        H  0.50215230  0.89136652  0.44553895     0.13600
C971        C  0.47875980  0.87212437  0.39125772     0.03000
N972        N  0.45118378  0.87377445  0.38584063    -0.80700
H973        H  0.45128383  0.88982012  0.43705480     0.18400
C974        C  0.46032442  0.85076891  0.38478216    -0.25600
C975        C  0.45929997  0.84071325  0.35958784     0.36500
C976        C  0.47719197  0.85213317  0.34064279    -0.19600
C977        C  0.49581814  0.87342004  0.34735029    -0.24800
C978        C  0.49675792  0.88357924  0.37249796     0.27800
H979        H  0.44654315  0.84198587  0.39923907     0.13600
N980        N  0.44013449  0.81888106  0.35305919    -0.82100
H981        H  0.50954215  0.88207905  0.33284394     0.18400
N982        N  0.51574845  0.90547722  0.37876965    -0.80700
H983        H  0.42849016  0.81267208  0.36932902     0.34100
H984        H  0.43483165  0.81781094  0.33049225     0.38600
H985        H  0.52753246  0.91158539  0.36293794     0.34000
H986        H  0.51273986  0.91332398  0.37421542     0.30700
H987        H  0.44151151  0.87480035  0.38772044     0.34000
H988        H  0.46114256  0.88315864  0.36648991     0.30700
H989        H  0.51849741  0.93509291  0.98943196     0.38600
H990        H  0.52177927  0.92089744  0.98879450     0.34100
C991        C  0.47605323  0.89876678  0.04292497    -0.19700
C992        C  0.49173803  0.91071399  0.06692590     0.36600
C993        C  0.49175812  0.90065720  0.09022211    -0.25600
C994        C  0.47624585  0.87876493  0.09053459     0.03000
C995        C  0.46121318  0.86686674  0.06561102     0.27800
C996        C  0.46129859  0.87702970  0.04196634    -0.24800
N997        N  0.50755047  0.93306835  0.06868755    -0.82100
H998        H  0.50337854  0.90994430  0.10915717     0.13600
C999        C  0.47511220  0.86851109  0.11824618     0.03000
N1000       N  0.44560877  0.84447552  0.06495140    -0.80700
H1001       H  0.44918206  0.86788169  0.02375256     0.18400
C1002       C  0.45661323  0.85376479  0.13633048    -0.25600
C1003       C  0.45482499  0.84371185  0.16270249     0.36500
C1004       C  0.47209035  0.84895262  0.17175461    -0.19600
C1005       C  0.49076256  0.86403341  0.15423406    -0.24800
C1006       C  0.49239678  0.87373720  0.12735786     0.27800
H1007       H  0.44347084  0.85001183  0.12969951     0.13600
N1008       N  0.43555211  0.82815163  0.18031401    -0.82100
H1009       H  0.50385003  0.86772938  0.16103509     0.18400
N1010       N  0.51136424  0.88856024  0.10892957    -0.80700
H1011       H  0.42446215  0.82630339  0.17086423     0.34100
H1012       H  0.42945106  0.81380217  0.17720303     0.38600
H1013       H  0.52254307  0.89063651  0.11876050     0.34000
H1014       H  0.50779908  0.88213162  0.08617467     0.30700
H1015       H  0.43563305  0.83804284  0.04528702     0.34000
H1016       H  0.45339087  0.84130024  0.06174352     0.30700
H1017       H  0.51548695  0.93947140  0.04691890     0.38600
H1018       H  0.50039328  0.93687937  0.07241307     0.34100
C1019       C  0.53818008  0.03623002  0.47370715    -0.19700
C1020       C  0.51923233  0.01598320  0.98831289     0.36600
C1021       C  0.50687605  0.99675201  0.97382916    -0.25600
C1022       C  0.51411868  0.99601759  0.45132474     0.03000
C1023       C  0.53068147  0.01373559  0.43250576     0.27800
C1024       C  0.54265725  0.03384896  0.44397493    -0.24800
N1025       N  0.51496502  0.01611460  0.02092917    -0.82100
H1026       H  0.49475010  0.98260736  0.98784361     0.13600
C1027       C  0.50380103  0.97504835  0.44517723     0.03000
N1028       N  0.53529153  0.01124348  0.40215802    -0.80700
H1029       H  0.55599470  0.04767276  0.43047307     0.18400
C1030       C  0.48212901  0.95824615  0.43945819    -0.25600
C1031       C  0.47005811  0.93771168  0.44751997     0.36500
C1032       C  0.47995943  0.93410104  0.46197555    -0.19600
C1033       C  0.50203583  0.95227558  0.95202668    -0.24800
C1034       C  0.51283053  0.97196030  0.94134285     0.27800
H1035       H  0.47428358  0.96134677  0.43178988     0.13600
N1036       N  0.44769368  0.92125278  0.44343377    -0.82100
H1037       H  0.51101915  0.95084377  0.96162151     0.18400
N1038       N  0.53527638  0.98943387  0.94278380    -0.80700
H1039       H  0.44473061  0.92035257  0.41907157     0.34100
H1040       H  0.44068131  0.90672496  0.44941769     0.38600
H1041       H  0.53990106  0.99088702  0.96625563     0.34000
H1042       H  0.54092379  0.98608241  0.92813473     0.30700
H1043       H  0.54763069  0.02579823  0.39106709     0.34000
H1044       H  0.54052167  0.00545570  0.40626815     0.30700
H1045       H  0.51244357  0.02453377  0.02246840     0.38600
H1046       H  0.52799790  0.02364042  0.03492712     0.34100
N1047       N  0.47608933  0.91240302  0.99144214    -0.03300
C1048       C  0.47214955  0.92248700  0.98476906    -0.00700
C1049       C  0.45859502  0.91529178  0.51134192    -0.23600
C1050       C  0.45606570  0.90347318  0.53376834    -0.23800
C1051       C  0.46475464  0.89858259  0.52123422    -0.00800
H1052       H  0.45525102  0.92330370  0.51458678     0.13000
H1053       H  0.45012861  0.90026527  0.55773931     0.13000
N1054       N  0.38710377  0.42651417  0.52210448    -0.03300
C1055       C  0.38979818  0.41530484  0.52836403    -0.00700
C1056       C  0.37983528  0.40128478  0.01580510    -0.23600
C1057       C  0.37228915  0.40406188  0.99269636    -0.23800
C1058       C  0.37733782  0.41970142  0.49330308    -0.00800
H1059       H  0.37964382  0.39026905  0.01460299     0.13000
H1060       H  0.36476375  0.39538556  0.97054146     0.13000
N1061       N  0.47587944  0.83806964  0.76038603    -0.36400
N1062       N  0.46636320  0.81177731  0.81122557    -0.57000
N1063       N  0.45262105  0.78153952  0.76506118    -0.36400
N1064       N  0.46093613  0.80681861  0.71420808    -0.57000
C1065       C  0.47659626  0.84680971  0.78625379     0.27200
C1066       C  0.47331741  0.84397301  0.73420246     0.27200
C1067       C  0.44446474  0.77014273  0.79218762     0.27200
C1068       C  0.44253765  0.76782353  0.74047605     0.27200
C1069       C  0.47671291  0.82914942  0.82818734     0.35800
C1070       C  0.46403215  0.79928796  0.83075515     0.35800
C1071       C  0.46773671  0.82157915  0.69377633     0.35800
C1072       C  0.45653723  0.79248289  0.69633052     0.35800
C1073       C  0.47508009  0.85890975  0.77626751    -0.21700
C1074       C  0.47314215  0.85722236  0.74344920    -0.21700
C1075       C  0.42910736  0.74897239  0.78467189    -0.21700
C1076       C  0.42803412  0.74753381  0.75199337    -0.21700
C1077       C  0.48127310  0.82782472  0.85854202    -0.22700
C1078       C  0.47328508  0.80888605  0.86011428    -0.22700
C1079       C  0.46756757  0.81650267  0.66276674    -0.22700
C1080       C  0.46060785  0.79814440  0.66444562    -0.22700
C1081       C  0.47876942  0.84426787  0.81853805    -0.18100
C1082       C  0.47167401  0.83813561  0.70216586    -0.18100
C1083       C  0.44656769  0.77317476  0.70789045    -0.18100
C1084       C  0.45147766  0.77841930  0.82345899    -0.18100
H1085       H  0.47524673  0.86795335  0.79105904     0.14800
H1086       H  0.47156813  0.86474529  0.72819093     0.14800
H1087       H  0.41974443  0.73588334  0.80100354     0.14800
H1088       H  0.41765881  0.73316111  0.73828627     0.14800
H1089       H  0.48874068  0.83894066  0.87794613     0.13100
H1090       H  0.47340146  0.80248772  0.88088208     0.13100
H1091       H  0.47140946  0.82476085  0.64100137     0.13100
H1092       H  0.45802369  0.78951435  0.64435700     0.13100
H1093       H  0.47856557  0.82982626  0.76038133     0.26400
H1094       H  0.46584451  0.79776029  0.76331239     0.26400
O1095       O  0.35503866  0.64117029  0.96355866    -0.85100
O1096       O  0.31377517  0.60713444  0.98301344    -0.82200
C1097       C  0.30584368  0.59180903  0.96624845     0.98300
O1098       O  0.31204754  0.58461594  0.96919097    -0.82200
O1099       O  0.33793713  0.58339490  0.98433427    -0.84900
C1100       C  0.35282704  0.59527815  0.96441396     1.02900
O1101       O  0.36636559  0.61491911  0.96615795    -0.77600
O1102       O  0.38343982  0.65289462  0.98055997    -0.77800
C1103       C  0.37454066  0.65425288  0.96178307     1.02800
O1104       O  0.36970454  0.65748737  0.53185700    -0.85100
O1105       O  0.32940392  0.62177038  0.55183161    -0.82200
C1106       C  0.31285675  0.60253441  0.55737267     0.98300
O1107       O  0.30788515  0.58871002  0.54020719    -0.82200
O1108       O  0.33528450  0.58909840  0.55447554    -0.84800
C1109       C  0.35218615  0.59549827  0.55552534     1.02800
O1110       O  0.36727069  0.61033682  0.53766813    -0.77700
O1111       O  0.37993199  0.64608541  0.55200916    -0.77800
C1112       C  0.38016171  0.65893998  0.55223918     1.02800
Cr1113     Cr  0.34308469  0.63201366  0.50963819     1.93700
Cr1114     Cr  0.32563346  0.58996092  0.51381017     1.93200
Cr1115     Cr  0.37321666  0.63129556  0.51167322     1.39100
O1116       O  0.34725195  0.61764499  0.51176262    -1.22900
N1117       N  0.37801644  0.49044607  0.75996878    -0.36400
N1118       N  0.37426974  0.50767064  0.70962690    -0.57000
N1119       N  0.37079097  0.52564596  0.75753600    -0.36400
N1120       N  0.37631349  0.51025936  0.80815149    -0.57000
C1121       C  0.38427563  0.48800562  0.73432095     0.27200
C1122       C  0.38371130  0.48792590  0.78652836     0.27200
C1123       C  0.37311552  0.53498584  0.73093401     0.27200
C1124       C  0.37501793  0.53690878  0.78278538     0.27200
C1125       C  0.37336520  0.49572519  0.69167678     0.35800
C1126       C  0.36799710  0.51310569  0.69062672     0.35800
C1127       C  0.37365694  0.49733220  0.82700343     0.35800
C1128       C  0.37070480  0.51675009  0.82580619     0.35800
C1129       C  0.39406236  0.48384629  0.74476424    -0.21700
C1130       C  0.39360319  0.48368350  0.77769569    -0.21700
C1131       C  0.37884805  0.55235804  0.73945044    -0.21700
C1132       C  0.38032199  0.55372374  0.77213368    -0.21700
C1133       C  0.36658789  0.49366441  0.66102532    -0.22700
C1134       C  0.36321211  0.50471008  0.66036759    -0.22700
C1135       C  0.36644730  0.49573765  0.85681979    -0.22700
C1136       C  0.36467590  0.50812680  0.85608149    -0.22700
C1137       C  0.38012014  0.48804347  0.70186166    -0.18100
C1138       C  0.37909007  0.48818584  0.81838920    -0.18100
C1139       C  0.37167162  0.53093255  0.81509986    -0.18100
C1140       C  0.36864237  0.52727832  0.69945912    -0.18100
H1141       H  0.40050271  0.48083387  0.73015626     0.14800
H1142       H  0.39971122  0.48063002  0.79334997     0.14800
H1143       H  0.38135089  0.56281826  0.72393838     0.14800
H1144       H  0.38409621  0.56533716  0.78650235     0.14800
H1145       H  0.36458543  0.48534045  0.64105583     0.13100
H1146       H  0.35830637  0.50674626  0.63977696     0.13100
H1147       H  0.36287637  0.48665069  0.87708657     0.13100
H1148       H  0.35946531  0.51043533  0.87554757     0.13100
H1149       H  0.36828365  0.49136755  0.75946828     0.26400
H1150       H  0.36380287  0.51084148  0.75858651     0.26400
N1151       N  0.13999680  0.52660925  0.76137614    -0.36400
N1152       N  0.16695659  0.53611059  0.71188661    -0.57000
N1153       N  0.18998444  0.53968729  0.76012729    -0.36400
N1154       N  0.16292067  0.52892677  0.80966335    -0.57000
C1155       C  0.12839307  0.52025493  0.73485476     0.27200
C1156       C  0.12723673  0.51820679  0.78693992     0.27200
C1157       C  0.19818921  0.54058612  0.73340219     0.27200
C1158       C  0.19554925  0.53589797  0.78463542     0.27200
C1159       C  0.15593169  0.53661883  0.69453073     0.35800
C1160       C  0.18399912  0.54597673  0.69444807     0.35800
C1161       C  0.15133816  0.52791159  0.82901885     0.35800
C1162       C  0.17789345  0.53473772  0.82820887     0.35800
C1163       C  0.10810313  0.50796829  0.74377250    -0.21700
C1164       C  0.10742780  0.50683929  0.77664044    -0.21700
C1165       C  0.20875326  0.53690912  0.74084886    -0.21700
C1166       C  0.20709450  0.53395551  0.77332485    -0.21700
C1167       C  0.16586472  0.54664278  0.66566065    -0.22700
C1168       C  0.18381443  0.55274997  0.66572840    -0.22700
C1169       C  0.15864373  0.53255383  0.86019888    -0.22700
C1170       C  0.17559817  0.53703969  0.85962810    -0.22700
C1171       C  0.13592106  0.52607542  0.70300008    -0.18100
C1172       C  0.13323511  0.52114559  0.81932583    -0.18100
C1173       C  0.19316747  0.53734116  0.81712064    -0.18100
C1174       C  0.19882021  0.54755813  0.70353599    -0.18100
H1175       H  0.09514675  0.50069763  0.72825396     0.14800
H1176       H  0.09383509  0.49845663  0.79125272     0.14800
H1177       H  0.21752872  0.53727437  0.72475898     0.14800
H1178       H  0.21435742  0.53161001  0.78724514     0.14800
H1179       H  0.16053130  0.54898676  0.64641972     0.13100
H1180       H  0.19510971  0.56075232  0.64656732     0.13100
H1181       H  0.15234141  0.53257279  0.88120138     0.13100
H1182       H  0.18498895  0.54127598  0.88002945     0.13100
H1183       H  0.15613391  0.53762035  0.76228259     0.26400
H1184       H  0.18436101  0.54512917  0.76225173     0.26400
N1185       N  0.03800757  0.47909887  0.52697823    -0.03300
C1186       C  0.02124516  0.47433766  0.53175261    -0.00700
C1187       C  0.00710821  0.46185558  0.00926907    -0.23600
C1188       C  0.01557168  0.45958471  0.98747901    -0.23800
C1189       C  0.03500857  0.47078733  0.49819086    -0.00800
H1190       H  0.99264358  0.45632358  0.00637413     0.13000
H1191       H  0.00891406  0.45210796  0.96434010     0.13000
N1192       N  0.98789288  0.54839397  0.52860839    -0.03300
C1193       C  0.00500964  0.55384009  0.53478394    -0.00700
C1194       C  0.02132873  0.56970275  0.51475670    -0.23600
C1195       C  0.01290317  0.57416614  0.99202633    -0.23800
C1196       C  0.99321960  0.56030804  0.50325744    -0.00800
H1197       H  0.03574090  0.57691816  0.00943485     0.13000
H1198       H  0.02051608  0.58381772  0.97079626     0.13000
N1199       N  0.50940405  0.43699625  0.53010036    -0.03300
C1200       C  0.49899496  0.44095172  0.53063969    -0.00700
C1201       C  0.50126234  0.44939484  0.50195512    -0.23600
C1202       C  0.52044905  0.45836976  0.98610098    -0.23800
C1203       C  0.51755077  0.44239933  0.50012768    -0.00800
H1204       H  0.50401930  0.46424141  0.99938784     0.13000
H1205       H  0.52576900  0.46462686  0.96212908     0.13000
N1206       N  0.89118827  0.51226696  0.76271023    -0.36400
N1207       N  0.85933161  0.49252920  0.81111611    -0.57000
N1208       N  0.82835235  0.47379343  0.76165758    -0.36400
N1209       N  0.85944192  0.49206299  0.71317911    -0.57000
C1210       C  0.90145660  0.51588661  0.78927072     0.27200
C1211       C  0.90116593  0.51463036  0.73708852     0.27200
C1212       C  0.81574944  0.46301586  0.78740446     0.27200
C1213       C  0.81591761  0.46345160  0.73554896     0.27200
C1214       C  0.87633904  0.50495024  0.83031158     0.35800
C1215       C  0.84321206  0.48408344  0.82974291     0.35800
C1216       C  0.87633074  0.50319439  0.69432235     0.35800
C1217       C  0.84363257  0.48401003  0.69387126     0.35800
C1218       C  0.91854503  0.52126416  0.78040227    -0.21700
C1219       C  0.91838536  0.52050259  0.74754351    -0.21700
C1220       C  0.79505979  0.44586780  0.77755038    -0.21700
C1221       C  0.79514912  0.44618830  0.74483744    -0.21700
C1222       C  0.87098140  0.50444762  0.86124693    -0.22700
C1223       C  0.84994665  0.49113632  0.86088904    -0.22700
C1224       C  0.87114928  0.50213157  0.66282124    -0.22700
C1225       C  0.85047308  0.49008293  0.66259879    -0.22700
C1226       C  0.89593458  0.51460536  0.82130408    -0.18100
C1227       C  0.89553481  0.51219547  0.70450715    -0.18100
C1228       C  0.82261973  0.46951627  0.70354380    -0.18100
C1229       C  0.82218233  0.46876883  0.81960579    -0.18100
H1230       H  0.92985485  0.52512989  0.79599486     0.14800
H1231       H  0.92966038  0.52381617  0.73305067     0.14800
H1232       H  0.78126163  0.43437616  0.79237511     0.14800
H1233       H  0.78140806  0.43494144  0.72968646     0.14800
H1234       H  0.88103528  0.51231469  0.88213081     0.13100
H1235       H  0.84058903  0.48678534  0.88132784     0.13100
H1236       H  0.88099469  0.50879397  0.64194794     0.13100
H1237       H  0.84132546  0.48567337  0.64166529     0.13100
H1238       H  0.87909701  0.50997309  0.76206416     0.26400
H1239       H  0.84411660  0.48848617  0.76187536     0.26400
N1240       N  0.55893516  0.40975211  0.76652211    -0.36400
N1241       N  0.57795746  0.40681401  0.81345737    -0.57000
N1242       N  0.58932272  0.39707371  0.76351157    -0.36400
N1243       N  0.56901549  0.39836722  0.71615380    -0.57000
C1244       C  0.55097723  0.40882987  0.79386388     0.27200
C1245       C  0.54735919  0.40571135  0.74191648     0.27200
C1246       C  0.59226616  0.39167504  0.78980664     0.27200
C1247       C  0.58754362  0.38721650  0.73853390     0.27200
C1248       C  0.57456992  0.41508645  0.83187590     0.35800
C1249       C  0.59112512  0.40888717  0.83000942     0.35800
C1250       C  0.56338249  0.40471507  0.69801494     0.35800
C1251       C  0.57906640  0.39738236  0.69661408     0.35800
C1252       C  0.53405486  0.40405341  0.78649376    -0.21700
C1253       C  0.53185723  0.40221791  0.75368443    -0.21700
C1254       C  0.59234987  0.37825311  0.78150130    -0.21700
C1255       C  0.58924130  0.37533567  0.74908625    -0.21700
C1256       C  0.58590620  0.42273004  0.86015688    -0.22700
C1257       C  0.59632963  0.41866343  0.85902076    -0.22700
C1258       C  0.56969744  0.40755179  0.66670092    -0.22700
C1259       C  0.57964210  0.40290582  0.66583107    -0.22700
C1260       C  0.55957380  0.41360834  0.82491422    -0.18100
C1261       C  0.55161069  0.40682636  0.70909535    -0.18100
C1262       C  0.58670661  0.39050476  0.70620077    -0.18100
C1263       C  0.59627591  0.39970336  0.82069876    -0.18100
H1264       H  0.52454988  0.40248198  0.80297327     0.14800
H1265       H  0.52034941  0.39896574  0.73999050     0.14800
H1266       H  0.59471370  0.37150611  0.79707758     0.14800
H1267       H  0.58880366  0.36594763  0.73477313     0.14800
H1268       H  0.58618437  0.42994884  0.87991909     0.13100
H1269       H  0.60612604  0.42197564  0.87768594     0.13100
H1270       H  0.56731758  0.41237214  0.64653562     0.13100
H1271       H  0.58643844  0.40346623  0.64493582     0.13100
H1272       H  0.57300325  0.41535194  0.76432015     0.26400
H1273       H  0.59120134  0.40889262  0.76208643     0.26400
O1274       O  0.69861546  0.38844132  0.98794812    -0.85100
O1275       O  0.66302398  0.37535109  0.97280258    -0.82200
C1276       C  0.64390340  0.36381146  0.97141328     0.98300
O1277       O  0.63072133  0.34834456  0.98995112    -0.82200
O1278       O  0.62843507  0.31952726  0.97370827    -0.84900
C1279       C  0.63353132  0.31119660  0.97187970     1.02900
O1280       O  0.64826694  0.31794580  0.98909508    -0.77600
O1281       O  0.68543608  0.35928541  0.97100312    -0.77800
C1282       C  0.69912833  0.37894639  0.96907451     1.02800
O1283       O  0.68667582  0.38237528  0.55442794    -0.85100
O1284       O  0.65284828  0.37242662  0.53760633    -0.82200
C1285       C  0.63810043  0.35789629  0.55625580     0.98300
O1286       O  0.62958851  0.33995597  0.55398325    -0.82200
O1287       O  0.62479011  0.30941722  0.53918507    -0.84800
C1288       C  0.63683482  0.31257866  0.55842339     1.02800
O1289       O  0.65644883  0.32869140  0.55576555    -0.77700
O1290       O  0.69491906  0.36842072  0.53851837    -0.77800
C1291       C  0.69822570  0.38096642  0.55633886     1.02800
Cr1292     Cr  0.67304217  0.37654150  0.51306482     1.93700
Cr1293     Cr  0.62974013  0.32984287  0.51334468     1.93200
Cr1294     Cr  0.66957460  0.34319759  0.51428335     1.39100
O1295       O  0.65745259  0.34987476  0.51347270    -1.22900
N1296       N  0.54698094  0.13443258  0.76275818    -0.36400
N1297       N  0.55317574  0.15799789  0.81580195    -0.57000
N1298       N  0.56733910  0.18872448  0.77049208    -0.36400
N1299       N  0.55949261  0.16460552  0.71766199    -0.57000
C1300       C  0.53672668  0.12016953  0.78657934     0.27200
C1301       C  0.54071774  0.12401318  0.73484393     0.27200
C1302       C  0.56625963  0.19536596  0.79734984     0.27200
C1303       C  0.56867757  0.19837430  0.74563761     0.27200
C1304       C  0.55048880  0.14432304  0.83201578     0.35800
C1305       C  0.56242140  0.17382803  0.83625259     0.35800
C1306       C  0.55947360  0.15381290  0.69811439     0.35800
C1307       C  0.56996975  0.18245205  0.70213744     0.35800
C1308       C  0.52380306  0.10042826  0.77362532    -0.21700
C1309       C  0.52638403  0.10287502  0.74096012    -0.21700
C1310       C  0.56678913  0.20931131  0.78950915    -0.21700
C1311       C  0.56831582  0.21121382  0.75682239    -0.21700
C1312       C  0.55791481  0.15144981  0.86306078    -0.22700
C1313       C  0.56539887  0.17011539  0.86574992    -0.22700
C1314       C  0.56992189  0.16482490  0.66998927    -0.22700
C1315       C  0.57638105  0.18288280  0.67241046    -0.22700
C1316       C  0.54015425  0.12486475  0.81970095    -0.18100
C1317       C  0.54858866  0.13338020  0.70426591    -0.18100
C1318       C  0.57267829  0.19771941  0.71373225    -0.18100
C1319       C  0.56740006  0.19111967  0.82873167    -0.18100
H1320       H  0.51379434  0.08581994  0.78642070     0.14800
H1321       H  0.51870752  0.09053643  0.72369910     0.14800
H1322       H  0.56677974  0.21776948  0.80573381     0.14800
H1323       H  0.56974412  0.22146240  0.74302589     0.14800
H1324       H  0.55791131  0.14398330  0.88187948     0.13100
H1325       H  0.57221066  0.17981269  0.88694155     0.13100
H1326       H  0.57235434  0.16020190  0.64960425     0.13100
H1327       H  0.58470776  0.19485283  0.65424579     0.13100
H1328       H  0.55941365  0.15062093  0.76565591     0.26400
H1329       H  0.57031269  0.18074965  0.76962147     0.26400
N1330       N  0.54746409  0.06501512  0.99585743    -0.03300
C1331       C  0.55116409  0.05483286  0.98833359    -0.00700
C1332       C  0.56742037  0.06298604  0.51099159    -0.23600
C1333       C  0.57185564  0.07668552  0.53169355    -0.23800
C1334       C  0.56029521  0.07871642  0.52139200    -0.00800
H1335       H  0.57192337  0.05603352  0.51418096     0.13000
H1336       H  0.58085929  0.08283141  0.55358145     0.13000
C1337       C  0.53374622  0.10920357  0.84260493    -0.19700
C1338       C  0.52049380  0.10166923  0.86903124     0.36600
C1339       C  0.51941724  0.09147785  0.89401030    -0.25600
C1340       C  0.53047465  0.08782758  0.89245059     0.03000
C1341       C  0.54124877  0.09265369  0.86427391     0.27800
C1342       C  0.54309972  0.10365611  0.83982581    -0.24800
N1343       N  0.50834135  0.10446494  0.87158057    -0.82100
H1344       H  0.51059934  0.08715572  0.91531034     0.13600
C1345       C  0.53340859  0.08200986  0.92174583     0.03000
N1346       N  0.55056710  0.08670431  0.86089731    -0.80700
H1347       H  0.55273888  0.10884019  0.81922602     0.18400
C1348       C  0.51778147  0.06112358  0.93210953    -0.25600
C1349       C  0.52151857  0.05530468  0.95806539     0.36500
C1350       C  0.54133555  0.07047453  0.97307092    -0.19600
C1351       C  0.55626246  0.09156753  0.96404580    -0.24800
C1352       C  0.55238621  0.09755301  0.93893445     0.27800
H1353       H  0.50283825  0.04931011  0.91973547     0.13600
N1354       N  0.50512492  0.03417904  0.96938131    -0.82100
H1355       H  0.57133619  0.10336038  0.97603594     0.18400
N1356       N  0.56757222  0.11936677  0.93095821    -0.80700
H1357       H  0.49256444  0.03062301  0.97627783     0.34100
H1358       H  0.50006680  0.02429616  0.95036629     0.38600
H1359       H  0.58027653  0.12878648  0.94679935     0.34000
H1360       H  0.57361228  0.12186969  0.90838207     0.30700
H1361       H  0.55749328  0.09103102  0.83842696     0.34000
H1362       H  0.56264646  0.09501378  0.87764889     0.30700
H1363       H  0.50928042  0.11100112  0.85087539     0.38600
H1364       H  0.51453711  0.11489612  0.89037828     0.34100
C1365       C  0.55635094  0.08751772  0.54183211    -0.19700
C1366       C  0.57307069  0.10755593  0.55561032     0.36600
C1367       C  0.56899029  0.11345260  0.58055210    -0.25600
C1368       C  0.54866707  0.09943460  0.59281690     0.03000
C1369       C  0.53172433  0.07957904  0.57803429     0.27800
C1370       C  0.53578868  0.07415496  0.55213263    -0.24800
N1371       N  0.59420410  0.12146241  0.54512120    -0.82100
H1372       H  0.58189692  0.12871594  0.59164571     0.13600
C1373       C  0.54630437  0.10554951  0.62259306     0.03000
N1374       N  0.51052598  0.06410969  0.58954766    -0.80700
H1375       H  0.52294513  0.05863424  0.54176488     0.18400
C1376       C  0.53515526  0.10914553  0.62219152    -0.25600
C1377       C  0.53439767  0.11678445  0.64947297     0.36500
C1378       C  0.54556025  0.12151271  0.67722686    -0.19600
C1379       C  0.55601080  0.11714533  0.67797559    -0.24800
C1380       C  0.55637963  0.10907246  0.65096783     0.27800
H1381       H  0.52741154  0.10637463  0.60036980     0.13600
N1382       N  0.52306653  0.12057780  0.64885730    -0.82100
H1383       H  0.56453621  0.12078118  0.69932911     0.18400
N1384       N  0.56743736  0.10496392  0.65183728    -0.80700
H1385       H  0.51589369  0.11650104  0.62661748     0.34100
H1386       H  0.51102254  0.11063119  0.66565000     0.38600
H1387       H  0.57417033  0.10856020  0.67434092     0.34000
H1388       H  0.55641818  0.08885354  0.64846792     0.30700
H1389       H  0.50614944  0.05112233  0.59702806     0.34000
H1390       H  0.50928289  0.06930567  0.60958089     0.30700
H1391       H  0.60474652  0.13541113  0.55828248     0.38600
H1392       H  0.59525472  0.12553080  0.52146068     0.34100
C1393       C  0.57556511  0.20657569  0.85388760    -0.19700
C1394       C  0.59708975  0.22612764  0.85505552     0.36600
C1395       C  0.60442244  0.24183491  0.87558176    -0.25600
C1396       C  0.59057131  0.23850281  0.89484258     0.03000
C1397       C  0.56887097  0.21871680  0.89410393     0.27800
C1398       C  0.56164854  0.20295319  0.87361486    -0.24800
N1399       N  0.61146731  0.23019240  0.83474135    -0.82100
H1400       H  0.62104012  0.25687430  0.87616745     0.13600
C1401       C  0.59959781  0.25601727  0.91566646     0.03000
N1402       N  0.55374206  0.21424664  0.91299643    -0.80700
H1403       H  0.54500673  0.18804389  0.87226821     0.18400
C1404       C  0.60246490  0.27126303  0.90362458    -0.25600
C1405       C  0.61304181  0.28928368  0.92164075     0.36500
C1406       C  0.62129429  0.29222722  0.95197061    -0.19600
C1407       C  0.61808308  0.27670571  0.96397935    -0.24800
C1408       C  0.60714372  0.25856515  0.94630383     0.27800
H1409       H  0.59673948  0.26923369  0.87987610     0.13600
N1410       N  0.61628796  0.30497392  0.90858031    -0.82100
H1411       H  0.62415380  0.27873814  0.98736983     0.18400
N1412       N  0.60411297  0.24294039  0.95894364    -0.80700
H1413       H  0.61042953  0.30101011  0.88525553     0.34100
H1414       H  0.60736452  0.30486317  0.92201239     0.38600
H1415       H  0.61084940  0.24728460  0.98167023     0.34000
H1416       H  0.58798973  0.22913658  0.96185626     0.30700
H1417       H  0.54710392  0.20227691  0.92892000     0.34000
H1418       H  0.56077841  0.22712467  0.92682498     0.30700
H1419       H  0.62283126  0.23434821  0.84918006     0.38600
H1420       H  0.61895330  0.24303941  0.82031799     0.34100
C1421       C  0.62755696  0.29639823  0.58255152    -0.19700
C1422       C  0.63657917  0.30142439  0.61305558     0.36600
C1423       C  0.62663141  0.28522301  0.63499320    -0.25600
C1424       C  0.60856042  0.26406482  0.62654468     0.03000
C1425       C  0.59970038  0.25908047  0.59586712     0.27800
C1426       C  0.60904110  0.27530927  0.57454456    -0.24800
N1427       N  0.65544789  0.32288459  0.62199763    -0.82100
H1428       H  0.63319133  0.28911215  0.65874307     0.13600
C1429       C  0.59944086  0.24733473  0.64969977     0.03000
N1430       N  0.58153037  0.23757911  0.58618891    -0.80700
H1431       H  0.60217984  0.27140892  0.55103901     0.18400
C1432       C  0.57779489  0.23099723  0.65598544    -0.25600
C1433       C  0.56844161  0.21432601  0.67612316     0.36500
C1434       C  0.58126711  0.21460589  0.69180352    -0.19600
C1435       C  0.60292559  0.23120171  0.68645939    -0.24800
C1436       C  0.61211244  0.24731652  0.66502888     0.27800
H1437       H  0.56797828  0.23102612  0.64480657     0.13600
N1438       N  0.54604617  0.19755484  0.68005032    -0.82100
H1439       H  0.61260252  0.23120993  0.69847140     0.18400
N1440       N  0.63416462  0.26338287  0.65827876    -0.80700
H1441       H  0.53925272  0.19041315  0.65775136     0.34100
H1442       H  0.54076199  0.18594639  0.69533206     0.38600
H1443       H  0.64118990  0.26112477  0.67171150     0.34000
H1444       H  0.63574631  0.26189318  0.63428288     0.30700
H1445       H  0.57691698  0.23665005  0.56300823     0.34000
H1446       H  0.58579377  0.23070678  0.58553066     0.30700
H1447       H  0.66775377  0.32816262  0.60888397     0.38600
H1448       H  0.65908862  0.32388461  0.64599703     0.34100
C1449       C  0.59409088  0.38625940  0.68202048    -0.19700
C1450       C  0.61453248  0.39656063  0.68391272     0.36600
C1451       C  0.62041727  0.39060197  0.66354682    -0.25600
C1452       C  0.60635916  0.37465890  0.64091208     0.03000
C1453       C  0.58599070  0.36462413  0.63825515     0.27800
C1454       C  0.58006080  0.37044057  0.65909291    -0.24800
N1455       N  0.62928442  0.41296531  0.70680448    -0.82100
H1456       H  0.63612753  0.39854778  0.66530453     0.13600
C1457       C  0.61405600  0.36997654  0.61918030     0.03000
N1458       N  0.57095666  0.34851573  0.61499880    -0.80700
H1459       H  0.56427001  0.36231518  0.65773825     0.18400
C1460       C  0.60996615  0.35327522  0.62585488    -0.25600
C1461       C  0.61796742  0.34914734  0.60618031     0.36500
C1462       C  0.63013580  0.36195926  0.57919358    -0.19600
C1463       C  0.63450045  0.37895179  0.57324641    -0.24800
C1464       C  0.62642648  0.38294061  0.59275493     0.27800
H1465       H  0.60072641  0.34363443  0.64666637     0.13600
N1466       N  0.61410624  0.33231788  0.61387043    -0.82100
H1467       H  0.64406649  0.38909619  0.55300353     0.18400
N1468       N  0.63082331  0.40020828  0.58603034    -0.80700
H1469       H  0.60483728  0.32442429  0.63433752     0.34100
H1470       H  0.62854163  0.33898505  0.61951020     0.38600
H1471       H  0.64033296  0.40838679  0.56584758     0.34000
H1472       H  0.61660441  0.39397880  0.58037301     0.30700
H1473       H  0.56788192  0.35418018  0.59952837     0.34000
H1474       H  0.57691655  0.34532153  0.60097915     0.30700
H1475       H  0.64249614  0.42648678  0.69446648     0.38600
H1476       H  0.63392718  0.40856972  0.72155855     0.34100
C1477       C  0.63691680  0.36914602  0.94972100    -0.19700
C1478       C  0.62416773  0.36990490  0.96106526     0.36600
C1479       C  0.61783617  0.37520634  0.93998146    -0.25600
C1480       C  0.62359038  0.37928909  0.90770639     0.03000
C1481       C  0.63609521  0.37820271  0.89627597     0.27800
C1482       C  0.64301552  0.37355698  0.91764629    -0.24800
N1483       N  0.61808377  0.36572247  0.99409679    -0.82100
H1484       H  0.60854051  0.37638532  0.94882431     0.13600
C1485       C  0.61658553  0.38492991  0.88635883     0.03000
N1486       N  0.64140453  0.38148220  0.86298708    -0.80700
H1487       H  0.65271347  0.37281215  0.90913380     0.18400
C1488       C  0.63151550  0.40339532  0.86826770    -0.25600
C1489       C  0.62552605  0.40900795  0.84714761     0.36500
C1490       C  0.60412790  0.39619439  0.84501776    -0.19600
C1491       C  0.58928736  0.37816030  0.86386570    -0.24800
C1492       C  0.59521842  0.37215409  0.88413276     0.27800
H1493       H  0.64797702  0.41344373  0.87032082     0.13600
N1494       N  0.64150344  0.42765960  0.82832910    -0.82100
H1495       H  0.57287668  0.36826293  0.86161476     0.18400
N1496       N  0.57959149  0.35286027  0.90172432    -0.80700
H1497       H  0.64762854  0.42511701  0.81286682     0.34100
H1498       H  0.63539801  0.43065311  0.81407161     0.38600
H1499       H  0.56466064  0.34536854  0.89740755     0.34000
H1500       H  0.57943599  0.34288322  0.89308127     0.30700
H1501       H  0.65066865  0.38012823  0.85855026     0.34000
H1502       H  0.62745656  0.36944605  0.85016752     0.30700
H1503       H  0.60846403  0.36664987  0.99842473     0.38600
H1504       H  0.63169148  0.37759463  0.00765460     0.34100
C1505       C  0.71703049  0.39180280  0.94669282    -0.19700
C1506       C  0.71699287  0.38337907  0.91961011     0.36600
C1507       C  0.73469937  0.39657591  0.89977880    -0.25600
C1508       C  0.75254192  0.41804185  0.90668683     0.03000
C1509       C  0.75268332  0.42651246  0.93377655     0.27800
C1510       C  0.73494008  0.41337136  0.95331686    -0.24800
N1511       N  0.69899463  0.36159615  0.91184771    -0.82100
H1512       H  0.73449015  0.39005640  0.87877459     0.13600
C1513       C  0.77101641  0.43153360  0.88545414     0.03000
N1514       N  0.77095455  0.44837576  0.94155303    -0.80700
H1515       H  0.73533753  0.42005321  0.97427440     0.18400
C1516       C  0.77848733  0.44909380  0.87115711    -0.25600
C1517       C  0.79582222  0.46218173  0.85079491     0.36500
C1518       C  0.80560239  0.45725704  0.84407137    -0.19600
C1519       C  0.79842387  0.43996608  0.85879455    -0.24800
C1520       C  0.78131232  0.42713630  0.87972878     0.27800
H1521       H  0.77065865  0.45256427  0.87567571     0.13600
N1522       N  0.80278336  0.48001260  0.83709661    -0.82100
H1523       H  0.80605136  0.43634553  0.85350898     0.18400
N1524       N  0.77433672  0.40969074  0.89522108    -0.80700
H1525       H  0.80763878  0.48993005  0.85588900     0.34100
H1526       H  0.81586186  0.48873290  0.82252817     0.38600
H1527       H  0.78354310  0.40856999  0.88830267     0.34000
H1528       H  0.77667806  0.41271800  0.91977731     0.30700
H1529       H  0.76844179  0.45214748  0.96215927     0.34000
H1530       H  0.78313057  0.45103067  0.94684916     0.30700
H1531       H  0.70365900  0.35510545  0.91104388     0.38600
H1532       H  0.69385628  0.36040526  0.88901704     0.34100
C1533       C  0.71669729  0.39485930  0.57767304    -0.19700
C1534       C  0.73525444  0.40255673  0.56789866     0.36600
C1535       C  0.75246329  0.41513880  0.58854102    -0.25600
C1536       C  0.75159956  0.42017965  0.61901376     0.03000
C1537       C  0.73320545  0.41274804  0.62894993     0.27800
C1538       C  0.71593752  0.40031120  0.60793460    -0.24800
N1539       N  0.73687951  0.39798977  0.53669118    -0.82100
H1540       H  0.76665844  0.42104976  0.58068826     0.13600
C1541       C  0.77015786  0.43310714  0.64008889     0.03000
N1542       N  0.73204045  0.41753283  0.66044826    -0.80700
H1543       H  0.70169814  0.39438555  0.61547839     0.18400
C1544       C  0.78056250  0.45268152  0.65069908    -0.25600
C1545       C  0.79835354  0.46543583  0.67029495     0.36500
C1546       C  0.80611576  0.45855546  0.67887402    -0.19600
C1547       C  0.79603722  0.43923966  0.66756263    -0.24800
C1548       C  0.77790604  0.42626208  0.64866263     0.27800
H1549       H  0.77474870  0.45804430  0.64379304     0.13600
N1550       N  0.80797260  0.48508043  0.68109748    -0.82100
H1551       H  0.80180238  0.43387645  0.67485799     0.18400
N1552       N  0.76698011  0.40592615  0.63881740    -0.80700
H1553       H  0.79726028  0.48173102  0.69597506     0.34100
H1554       H  0.82139516  0.49355349  0.69475675     0.38600
H1555       H  0.77469340  0.40325827  0.64722047     0.34000
H1556       H  0.75223728  0.39472849  0.64966433     0.30700
H1557       H  0.71743351  0.41084177  0.66403284     0.34000
H1558       H  0.73312863  0.41045699  0.67683407     0.30700
H1559       H  0.74027631  0.39037293  0.53934745     0.38600
H1560       H  0.74949922  0.41219361  0.52497087     0.34100
C1561       C  0.51454817  0.43239496  0.55714470    -0.19700
C1562       C  0.53554173  0.44450599  0.56299499     0.36600
C1563       C  0.54016224  0.43938759  0.58865985    -0.25600
C1564       C  0.52446466  0.42298584  0.60960713     0.03000
C1565       C  0.50382801  0.41185560  0.60513152     0.27800
C1566       C  0.49899561  0.41645028  0.57887813    -0.24800
N1567       N  0.55222620  0.46241067  0.54346740    -0.82100
H1568       H  0.55616689  0.44836890  0.59254336     0.13600
C1569       C  0.53015563  0.41811153  0.63633651     0.03000
N1570       N  0.48784091  0.39623160  0.62769470    -0.80700
H1571       H  0.48300422  0.40744494  0.57565325     0.18400
C1572       C  0.54564227  0.43389775  0.65839177    -0.25600
C1573       C  0.55238466  0.43034634  0.68265051     0.36500
C1574       C  0.54354486  0.41056575  0.68520093    -0.19600
C1575       C  0.52790871  0.39469550  0.66335467    -0.24800
C1576       C  0.52127240  0.39835522  0.63890048     0.27800
H1577       H  0.55274007  0.44920985  0.65648240     0.13600
N1578       N  0.56874502  0.44732493  0.70369822    -0.82100
H1579       H  0.52122355  0.37956989  0.66481239     0.18400
N1580       N  0.50610939  0.38224782  0.61594507    -0.80700
H1581       H  0.56305543  0.44298088  0.72705549     0.34100
H1582       H  0.58118152  0.45004590  0.70234270     0.38600
H1583       H  0.51199439  0.37815093  0.60483712     0.34000
H1584       H  0.49249299  0.36910226  0.62821502     0.30700
H1585       H  0.48194464  0.40066210  0.63714919     0.34000
H1586       H  0.47566208  0.38209456  0.61539886     0.30700
H1587       H  0.55289475  0.47332703  0.54685125     0.38600
H1588       H  0.56669749  0.46965581  0.55088947     0.34100
C1589       C  0.52824183  0.43982168  0.98500064    -0.19700
C1590       C  0.51325133  0.41901312  0.97362767     0.36600
C1591       C  0.51872648  0.41414201  0.94953633    -0.25600
C1592       C  0.53897814  0.42962731  0.93647929     0.03000
C1593       C  0.55444784  0.45003961  0.94964095     0.27800
C1594       C  0.54882292  0.45499524  0.97343006    -0.24800
N1595       N  0.49194489  0.40289970  0.98426621    -0.82100
H1596       H  0.50671484  0.39842894  0.93963950     0.13600
C1597       C  0.54332214  0.42473107  0.90754478     0.03000
N1598       N  0.57561950  0.46579556  0.93802844    -0.80700
H1599       H  0.56026393  0.47101829  0.98185331     0.18400
C1600       C  0.55159898  0.43737209  0.88025128    -0.25600
C1601       C  0.55656688  0.43376954  0.85272372     0.36500
C1602       C  0.55233950  0.41663021  0.85195718    -0.19600
C1603       C  0.54316696  0.40340776  0.87869318    -0.24800
C1604       C  0.53903076  0.40753129  0.90670636     0.27800
H1605       H  0.55453867  0.45035365  0.88065635     0.13600
N1606       N  0.56629527  0.44767990  0.82584251    -0.82100
H1607       H  0.54012124  0.39035521  0.87811036     0.18400
N1608       N  0.53107616  0.39471180  0.93456337    -0.80700
H1609       H  0.56829218  0.45948109  0.83019817     0.34100
H1610       H  0.58131179  0.45512528  0.82335301     0.38600
H1611       H  0.52886248  0.38277598  0.93001709     0.34000
H1612       H  0.54254311  0.40417575  0.95240806     0.30700
H1613       H  0.58501841  0.47998827  0.95005338     0.34000
H1614       H  0.58163143  0.46090077  0.94350570     0.30700
H1615       H  0.49181017  0.40120482  0.00892380     0.38600
H1616       H  0.48566614  0.40756958  0.97942682     0.34100
C1617       C  0.97358871  0.54151542  0.55357430    -0.19700
C1618       C  0.95158492  0.52562480  0.54907412     0.36600
C1619       C  0.93912406  0.52131133  0.57372941    -0.25600
C1620       C  0.94792899  0.53175123  0.60322472     0.03000
C1621       C  0.96948990  0.54634540  0.60864556     0.27800
C1622       C  0.98210435  0.55144820  0.58358600    -0.24800
N1623       N  0.94119039  0.51277688  0.52093227    -0.82100
H1624       H  0.92235299  0.50939673  0.57009797     0.13600
C1625       C  0.93438873  0.52682822  0.62875042     0.03000
N1626       N  0.97835720  0.55530431  0.63988942    -0.80700
H1627       H  0.99883775  0.56335560  0.58748681     0.18400
C1628       C  0.92204111  0.50851118  0.64673899    -0.25600
C1629       C  0.90932732  0.50353815  0.67162718     0.36500
C1630       C  0.90960719  0.51755655  0.67930657    -0.19600
C1631       C  0.92191646  0.53585475  0.66123190    -0.24800
C1632       C  0.93398406  0.54041533  0.63549525     0.27800
H1633       H  0.92222694  0.49802162  0.64112806     0.13600
N1634       N  0.89605697  0.48430466  0.68911945    -0.82100
H1635       H  0.92152008  0.54619846  0.66663142     0.18400
N1636       N  0.94493686  0.55814513  0.61524538    -0.80700
H1637       H  0.89775451  0.47578543  0.68063963     0.34100
H1638       H  0.88050825  0.47514636  0.68461264     0.38600
H1639       H  0.94239785  0.56607119  0.62284771     0.34000
H1640       H  0.96100907  0.56873735  0.61747063     0.30700
H1641       H  0.99430690  0.56509739  0.64010571     0.34000
H1642       H  0.97741325  0.56479781  0.64526918     0.30700
H1643       H  0.95151356  0.51554026  0.50614836     0.38600
H1644       H  0.93537185  0.51659901  0.50835906     0.34100
C1645       C  0.97679431  0.55291355  0.97638441    -0.19700
C1646       C  0.97257458  0.54141352  0.94953149     0.36600
C1647       C  0.95907482  0.53556773  0.92559415    -0.25600
C1648       C  0.94959263  0.54094240  0.92740742     0.03000
C1649       C  0.95314216  0.55181846  0.95453042     0.27800
C1650       C  0.96689975  0.55786225  0.97877805    -0.24800
N1651       N  0.98162887  0.53525513  0.94599795    -0.82100
H1652       H  0.95618652  0.52697869  0.90504426     0.13600
C1653       C  0.93580059  0.53460074  0.90062042     0.03000
N1654       N  0.94268917  0.55653146  0.95735808    -0.80700
H1655       H  0.97321916  0.56886298  0.49936768     0.18400
C1656       C  0.91822377  0.51323145  0.89310770    -0.25600
C1657       C  0.90547424  0.50653128  0.86670130     0.36500
C1658       C  0.91034255  0.52150345  0.84754415    -0.19600
C1659       C  0.92803779  0.54289264  0.85475320    -0.24800
C1660       C  0.94086674  0.54954891  0.88106246     0.27800
H1661       H  0.91451428  0.50176628  0.90789500     0.13600
N1662       N  0.88739773  0.48457314  0.85940973    -0.82100
H1663       H  0.93178493  0.55440496  0.84005545     0.18400
N1664       N  0.95926085  0.57147534  0.88747344    -0.80700
H1665       H  0.88586412  0.47558879  0.87596494     0.34100
H1666       H  0.88993408  0.48202435  0.83718950     0.38600
H1667       H  0.96884854  0.57846596  0.86728808     0.34000
H1668       H  0.95464440  0.57791415  0.89084292     0.30700
H1669       H  0.92659092  0.54228427  0.95873755     0.34000
H1670       H  0.94695036  0.56453389  0.97870636     0.30700
H1671       H  0.99787467  0.54862499  0.94398771     0.38600
H1672       H  0.97814319  0.52687830  0.96625641     0.34100
C1673       C  0.02187774  0.48705825  0.55167045    -0.19700
C1674       C  0.03740692  0.50871890  0.54597379     0.36600
C1675       C  0.03478574  0.51973625  0.55772780    -0.25600
C1676       C  0.01679242  0.50948126  0.57502202     0.03000
C1677       C  0.00241650  0.48830574  0.58382119     0.27800
C1678       C  0.00491961  0.47715586  0.57155426    -0.24800
N1679       N  0.05479587  0.51915012  0.52552824    -0.82100
H1680       H  0.04584138  0.53587849  0.55035893     0.13600
C1681       C  0.01100273  0.51950765  0.57603694     0.03000
N1682       N  0.98471896  0.47797496  0.60350278    -0.80700
H1683       H  0.99306221  0.46049167  0.57601722     0.18400
C1684       C  0.99198570  0.50874035  0.56168749    -0.25600
C1685       C  0.98885936  0.51948107  0.55078310     0.36500
C1686       C  0.00493282  0.54140449  0.55446287    -0.19600
C1687       C  0.02289515  0.55181083  0.57220071    -0.24800
C1688       C  0.02599358  0.54099662  0.58337681     0.27800
H1689       H  0.98122902  0.49360318  0.05120713     0.13600
N1690       N  0.97084568  0.50936966  0.02862875    -0.82100
H1691       H  0.03509963  0.56862650  0.57555094     0.18400
N1692       N  0.04487439  0.55194978  0.60023460    -0.80700
H1693       H  0.97041903  0.50259997  0.00891691     0.34100
H1694       H  0.95777548  0.49728023  0.04281567     0.38600
H1695       H  0.05441509  0.56772368  0.60332717     0.34000
H1696       H  0.04054345  0.54541731  0.62305470     0.30700
H1697       H  0.97555423  0.46239453  0.60752429     0.34000
H1698       H  0.99052558  0.48544813  0.62575101     0.30700
H1699       H  0.06860754  0.53165936  0.53826691     0.38600
H1700       H  0.05422613  0.52528432  0.50603909     0.34100
C1701       C  0.11893082  0.51505417  0.84468269    -0.19700
C1702       C  0.10303623  0.49447681  0.85650314     0.36600
C1703       C  0.09042582  0.48920416  0.88172658    -0.25600
C1704       C  0.09373717  0.50433110  0.89610857     0.03000
C1705       C  0.10993595  0.52511464  0.88442356     0.27800
C1706       C  0.12220787  0.53022347  0.85853787    -0.24800
N1707       N  0.09993324  0.47899175  0.84318016    -0.82100
H1708       H  0.07808788  0.47319890  0.89035796     0.13600
C1709       C  0.08040862  0.49794459  0.92380399     0.03000
N1710       N  0.11454038  0.54123075  0.89949352    -0.80700
H1711       H  0.13475151  0.54621185  0.84985480     0.18400
C1712       C  0.07764551  0.48657475  0.94896342    -0.25600
C1713       C  0.06345096  0.47817517  0.97375236     0.36500
C1714       C  0.05232994  0.48186537  0.97429837    -0.19600
C1715       C  0.05554545  0.49375079  0.94977295    -0.24800
C1716       C  0.06898403  0.50130926  0.92421285     0.27800
H1717       H  0.08608349  0.48359445  0.94876353     0.13600
N1718       N  0.05989504  0.46515265  0.99702737    -0.82100
H1719       H  0.04676594  0.49635077  0.94969637     0.18400
N1720       N  0.06997205  0.51125947  0.89790416    -0.80700
H1721       H  0.06364651  0.47180922  0.01957101     0.34100
H1722       H  0.04776775  0.45806923  0.51969308     0.38600
H1723       H  0.05486483  0.50070874  0.88842606     0.34000
H1724       H  0.07463065  0.52420618  0.90672569     0.30700
H1725       H  0.13007683  0.55287372  0.90752387     0.34000
H1726       H  0.11338393  0.54790501  0.88220625     0.30700
H1727       H  0.08449521  0.46655514  0.83481534     0.38600
H1728       H  0.10175745  0.47333744  0.86150873     0.34100
C1729       C  0.05310723  0.48718928  0.55145596    -0.19700
C1730       C  0.04612110  0.47840694  0.58242742     0.36600
C1731       C  0.06060248  0.48627276  0.60634972    -0.25600
C1732       C  0.08205191  0.50246350  0.59991358     0.03000
C1733       C  0.08927767  0.51109607  0.56895916     0.27800
C1734       C  0.07470344  0.50351752  0.54499145    -0.24800
N1735       N  0.02417747  0.46097435  0.58944262    -0.82100
H1736       H  0.05502605  0.47937876  0.62998596     0.13600
C1737       C  0.09647861  0.50932352  0.62573491     0.03000
N1738       N  0.11128420  0.52722139  0.56196167    -0.80700
H1739       H  0.08018461  0.51039583  0.52140197     0.18400
C1740       C  0.10112110  0.49920791  0.62912763    -0.25600
C1741       C  0.11354846  0.50416105  0.65443190     0.36500
C1742       C  0.12184162  0.51981780  0.67670587    -0.19600
C1743       C  0.11692604  0.52973778  0.67359758    -0.18600
C1744       C  0.10412011  0.52448245  0.64836276     0.27800
H1745       H  0.09472268  0.48711196  0.61225811     0.13600
N1746       N  0.11700187  0.49263166  0.65750178    -0.82100
H1747       H  0.12308636  0.54154847  0.69089422     0.18400
N1748       N  0.09847806  0.53410419  0.64591606    -0.80700
H1749       H  0.13302762  0.50296219  0.65560262     0.34100
H1750       H  0.11195147  0.48572599  0.68012039     0.38600
H1751       H  0.10511118  0.54466973  0.66470754     0.34000
H1752       H  0.10501965  0.54288043  0.62486287     0.30700
H1753       H  0.11399195  0.53166313  0.53799375     0.34000
H1754       H  0.11889674  0.54041375  0.57554886     0.30700
H1755       H  0.02118547  0.46524154  0.60838368     0.38600
H1756       H  0.02063908  0.44850924  0.59704524     0.34100
C1757       C  0.36831312  0.53956648  0.83810669    -0.19700
C1758       C  0.35152583  0.53572518  0.83370549     0.36600
C1759       C  0.34970368  0.54560227  0.85348178    -0.25600
C1760       C  0.36421262  0.55909663  0.87808391     0.03000
C1761       C  0.38051219  0.56226901  0.88341117     0.27800
C1762       C  0.38258828  0.55267668  0.86317578    -0.24800
N1763       N  0.33636403  0.52184984  0.80894068    -0.82100
H1764       H  0.33690981  0.54277135  0.84952590     0.13600
C1765       C  0.36133273  0.56880404  0.89889266     0.03000
N1766       N  0.39467576  0.57484295  0.90971957    -0.80700
H1767       H  0.39544627  0.55558396  0.86686803     0.18400
C1768       C  0.34223032  0.55577197  0.91481541    -0.25600
C1769       C  0.33882620  0.56410921  0.93515857     0.36500
C1770       C  0.35499286  0.58602627  0.94035936    -0.19600
C1771       C  0.37381838  0.59912550  0.92321405    -0.24800
C1772       C  0.37699662  0.59070125  0.90234910     0.27800
H1773       H  0.32987000  0.53892271  0.91163589     0.13600
N1774       N  0.31881609  0.55016103  0.95023661    -0.82100
H1775       H  0.38627047  0.61598435  0.92622035     0.18400
N1776       N  0.39597047  0.60442137  0.88426570    -0.80700
H1777       H  0.30734289  0.54192163  0.93237556     0.34100
H1778       H  0.31601082  0.53936154  0.96377715     0.38600
H1779       H  0.39718490  0.61405432  0.87037209     0.34000
H1780       H  0.40858539  0.61398049  0.90028780     0.30700
H1781       H  0.39359099  0.56550779  0.92431387     0.34000
H1782       H  0.40992036  0.58696611  0.90066998     0.30700
H1783       H  0.32156885  0.50985142  0.81949935     0.38600
H1784       H  0.33640741  0.53024621  0.79379516     0.34100
C1785       C  0.35406458  0.58472263  0.57582824    -0.19700
C1786       C  0.36780967  0.58464847  0.56739504     0.36600
C1787       C  0.36875852  0.57379523  0.58649543    -0.25600
C1788       C  0.35646748  0.56303481  0.61399995     0.03000
C1789       C  0.34293885  0.56328259  0.62260535     0.27800
C1790       C  0.34158336  0.57377221  0.60321889    -0.24800
N1791       N  0.38056388  0.59528293  0.53918636    -0.82100
H1792       H  0.37913031  0.57361732  0.57973506     0.13600
C1793       C  0.35910615  0.55279146  0.63413350     0.03000
N1794       N  0.33109806  0.55355162  0.65156383    -0.80700
H1795       H  0.33104484  0.57372447  0.61004502     0.18400
C1796       C  0.37950564  0.56442431  0.64274804    -0.25600
C1797       C  0.38294294  0.55578397  0.66221511     0.36500
C1798       C  0.36564539  0.53546513  0.67454564    -0.19600
C1799       C  0.34529519  0.52341404  0.66497873    -0.24800
C1800       C  0.34187496  0.53167910  0.64409562     0.27800
H1801       H  0.39282606  0.58045854  0.63461415     0.13600
N1802       N  0.40388243  0.56778796  0.67061541    -0.82100
H1803       H  0.33209408  0.50758850  0.67399489     0.18400
N1804       N  0.32108865  0.51870210  0.63274175    -0.80700
H1805       H  0.41489861  0.58254367  0.65982901     0.34100
H1806       H  0.40626758  0.56000993  0.66117909     0.38600
H1807       H  0.32098937  0.51718979  0.60800664     0.34000
H1808       H  0.31024993  0.50360012  0.64224877     0.30700
H1809       H  0.33539419  0.56502515  0.66582665     0.34000
H1810       H  0.31522658  0.54242869  0.64571400     0.30700
H1811       H  0.37050419  0.58741843  0.51942089     0.38600
H1812       H  0.39023297  0.59426284  0.53709272     0.34100
C1813       C  0.20907516  0.54418370  0.83963810    -0.19700
C1814       C  0.22985129  0.56495187  0.83833762     0.36600
C1815       C  0.24512243  0.57099339  0.85833960    -0.25600
C1816       C  0.23988904  0.55673665  0.87979488     0.03000
C1817       C  0.21911931  0.53600591  0.88132287     0.27800
C1818       C  0.20380794  0.52985393  0.86104380    -0.24800
N1819       N  0.23526460  0.57973555  0.81657121    -0.82100
H1820       H  0.26109623  0.58695994  0.85765153     0.13600
C1821       C  0.25615653  0.56430304  0.90197534     0.03000
N1822       N  0.21375096  0.52141832  0.90350508    -0.80700
H1823       H  0.18783112  0.51390185  0.86168061     0.18400
C1824       C  0.25621143  0.56921655  0.93328790    -0.25600
C1825       C  0.27228596  0.57806435  0.95452318     0.36500
C1826       C  0.28843684  0.58177378  0.94446618    -0.19600
C1827       C  0.28810835  0.57634070  0.91331010    -0.24800
C1828       C  0.27217468  0.56785537  0.89171510     0.27800
H1829       H  0.24393230  0.56656822  0.94106056     0.13600
N1830       N  0.27207054  0.58309256  0.98644317    -0.82100
H1831       H  0.30059159  0.57929419  0.90560307     0.18400
N1832       N  0.27235437  0.56320822  0.85933828    -0.80700
H1833       H  0.25805213  0.56937745  0.99724611     0.34100
H1834       H  0.27231419  0.59455275  0.49119706     0.38600
H1835       H  0.28533261  0.56695681  0.85551725     0.34000
H1836       H  0.25903156  0.54701067  0.85607933     0.30700
H1837       H  0.19780330  0.50684395  0.90173328     0.34000
H1838       H  0.22197175  0.51908465  0.89683699     0.30700
H1839       H  0.22705325  0.58203416  0.82354402     0.38600
H1840       H  0.25121730  0.59430209  0.81839728     0.34100
C1841       C  0.29835161  0.59602460  0.58263356    -0.19700
C1842       C  0.28378085  0.57600947  0.59691131     0.36600
C1843       C  0.26862509  0.56954965  0.61776610    -0.25600
C1844       C  0.26736683  0.58240617  0.62415906     0.03000
C1845       C  0.28261168  0.60283941  0.61127074     0.27800
C1846       C  0.29810534  0.60951463  0.59097640    -0.24800
N1847       N  0.28424463  0.56221410  0.58994600    -0.82100
H1848       H  0.25738094  0.55415998  0.62860045     0.13600
C1849       C  0.24952046  0.57383820  0.64338395     0.03000
N1850       N  0.28187523  0.61645107  0.61786164    -0.80700
H1851       H  0.30935933  0.62494747  0.58030244     0.18400
C1852       C  0.25341324  0.58508057  0.66992070    -0.25600
C1853       C  0.23696947  0.57720262  0.68873280     0.36500
C1854       C  0.21617763  0.55733754  0.68168442    -0.19600
C1855       C  0.21212993  0.54618421  0.65496960    -0.24800
C1856       C  0.22858527  0.55439591  0.63538244     0.27800
H1857       H  0.26935681  0.59999311  0.67628444     0.13600
N1858       N  0.24174653  0.58973770  0.71472470    -0.82100
H1859       H  0.19612290  0.53100035  0.64959543     0.18400
N1860       N  0.22415014  0.54312827  0.60736032    -0.80700
H1861       H  0.23707487  0.58166336  0.73610175     0.34100
H1862       H  0.23317066  0.59202246  0.71156727     0.38600
H1863       H  0.20802468  0.52913118  0.60495797     0.34000
H1864       H  0.22877872  0.55231353  0.58750411     0.30700
H1865       H  0.29428314  0.63096087  0.60670215     0.34000
H1866       H  0.26805746  0.60963286  0.60778675     0.30700
H1867       H  0.29837871  0.56923568  0.59883841     0.38600
H1868       H  0.27223703  0.54796875  0.60198881     0.34100
C1869       C  0.39298844  0.67628979  0.57540567    -0.19700
C1870       C  0.40454262  0.69648310  0.56542899     0.36600
C1871       C  0.41430993  0.71217730  0.58811850    -0.25600
C1872       C  0.41268897  0.70804124  0.62068291     0.03000
C1873       C  0.40167437  0.68809479  0.63078454     0.27800
C1874       C  0.39207385  0.67236367  0.60799728    -0.24800
N1875       N  0.40634493  0.70108343  0.53219989    -0.82100
H1876       H  0.42283937  0.72755733  0.58033305     0.13600
C1877       C  0.42143051  0.72444567  0.64369561     0.03000
N1878       N  0.39959252  0.68360832  0.66413240    -0.80700
H1879       H  0.38304160  0.65682468  0.61586778     0.18400
C1880       C  0.41064481  0.72825661  0.64874235    -0.25600
C1881       C  0.41877119  0.74432989  0.66929894     0.36500
C1882       C  0.43808533  0.75681834  0.68472011    -0.19600
C1883       C  0.44896605  0.75312372  0.67952780    -0.24800
C1884       C  0.44082286  0.73702190  0.65892548     0.27800
H1885       H  0.39585703  0.71863409  0.63656702     0.13600
N1886       N  0.40759686  0.74810051  0.67461713    -0.82100
H1887       H  0.46379484  0.76282800  0.69161320     0.18400
N1888       N  0.45237207  0.73376581  0.65266485    -0.80700
H1889       H  0.39375481  0.73767828  0.66116756     0.34100
H1890       H  0.40313769  0.74489628  0.69861751     0.38600
H1891       H  0.46663773  0.74477884  0.66504962     0.34000
H1892       H  0.44373309  0.71908177  0.66176277     0.30700
H1893       H  0.38360824  0.67113601  0.66957832     0.34000
H1894       H  0.40568896  0.67868523  0.66830113     0.30700
H1895       H  0.40032477  0.70612737  0.52863071     0.38600
H1896       H  0.42228013  0.71348798  0.52642168     0.34100
C1897       C  0.38759706  0.67273708  0.94070296    -0.19700
C1898       C  0.37912266  0.67321367  0.91435087     0.36600
C1899       C  0.39172333  0.69193004  0.89739793    -0.25600
C1900       C  0.41259056  0.71026680  0.90651110     0.03000
C1901       C  0.42120702  0.70993438  0.93274343     0.27800
C1902       C  0.40871268  0.69106837  0.94922812    -0.24800
N1903       N  0.35778074  0.65480466  0.90472917    -0.82100
H1904       H  0.38511770  0.69223716  0.87719827     0.13600
C1905       C  0.42484438  0.72973182  0.88869783     0.03000
N1906       N  0.44211952  0.72893109  0.94365927    -0.80700
H1907       H  0.41530079  0.69095457  0.96971727     0.18400
C1908       C  0.41903409  0.73883764  0.89056658    -0.25600
C1909       C  0.42833668  0.75557795  0.87078680     0.36500
C1910       C  0.44431461  0.76387987  0.84942746    -0.19600
C1911       C  0.45077159  0.75534890  0.84872802    -0.24800
C1912       C  0.44078501  0.73800706  0.86759579     0.27800
H1913       H  0.40647776  0.73221599  0.90640836     0.13600
N1914       N  0.42029285  0.76285363  0.87134431    -0.82100
H1915       H  0.46255025  0.76121901  0.83171738     0.18400
N1916       N  0.44588834  0.72799525  0.86378594    -0.80700
H1917       H  0.43236070  0.77867135  0.87778462     0.34100
H1918       H  0.41507840  0.76135984  0.84839831     0.38600
H1919       H  0.44306278  0.72320259  0.83997734     0.34000
H1920       H  0.46192868  0.73912948  0.86821881     0.30700
H1921       H  0.44556248  0.72617259  0.96446437     0.34000
H1922       H  0.45261491  0.73359834  0.92637561     0.30700
H1923       H  0.35771810  0.65148116  0.88100683     0.38600
H1924       H  0.35008007  0.65816700  0.90561739     0.34100
C1925       C  0.37954113  0.43352949  0.97789442    -0.19700
C1926       C  0.39853399  0.45164425  0.96283390     0.36600
C1927       C  0.39834402  0.46053555  0.93729408    -0.25600
C1928       C  0.37956849  0.45191458  0.92636395     0.03000
C1929       C  0.36055563  0.43402390  0.94181761     0.27800
C1930       C  0.36071723  0.42480322  0.96710303    -0.24800
N1931       N  0.41812279  0.46070868  0.97186395    -0.82100
H1932       H  0.41296238  0.47399594  0.92529817     0.13600
C1933       C  0.38012972  0.46152539  0.89823428     0.03000
N1934       N  0.34119615  0.42525151  0.93167613    -0.80700
H1935       H  0.34450617  0.40904853  0.47219552     0.18400
C1936       C  0.36701693  0.44893617  0.87184903    -0.25600
C1937       C  0.36686741  0.45743649  0.84526639     0.36500
C1938       C  0.38048812  0.47901916  0.84441641    -0.19600
C1939       C  0.39430087  0.49179448  0.87009351    -0.24800
C1940       C  0.39393285  0.48322495  0.89728838     0.27800
H1941       H  0.35662955  0.43234622  0.87203424     0.13600
N1942       N  0.35245658  0.44402265  0.81956181    -0.82100
H1943       H  0.40474198  0.50839623  0.86944982     0.18400
N1944       N  0.40707471  0.49635854  0.92430681    -0.80700
H1945       H  0.33727067  0.43243095  0.82888686     0.34100
H1946       H  0.35538557  0.43667831  0.81041378     0.38600
H1947       H  0.41625127  0.51189543  0.91977287     0.34000
H1948       H  0.39726287  0.49128726  0.94338465     0.30700
H1949       H  0.32868914  0.41209643  0.94536749     0.34000
H1950       H  0.34233111  0.43643847  0.93612834     0.30700
H1951       H  0.42120559  0.46547323  0.99569691     0.38600
H1952       H  0.41681973  0.44927125  0.96973821     0.34100
C1953       C  0.38804013  0.43792361  0.54549435    -0.19700
C1954       C  0.36972221  0.43111132  0.55356011     0.36600
C1955       C  0.37037292  0.44107082  0.57840438    -0.25600
C1956       C  0.38865946  0.45715415  0.59645274     0.03000
C1957       C  0.40698241  0.46397467  0.58855522     0.27800
C1958       C  0.40658279  0.45461501  0.56269612    -0.24800
N1959       N  0.35026110  0.41350445  0.53736636    -0.82100
H1960       H  0.35628883  0.43578652  0.58446024     0.13600
C1961       C  0.38771252  0.46561283  0.62453262     0.03000
N1962       N  0.42570163  0.47984873  0.60743659    -0.80700
H1963       H  0.42069779  0.46009009  0.55649728     0.18400
C1964       C  0.37193133  0.45154320  0.64744456    -0.25600
C1965       C  0.36947005  0.45850928  0.67312818     0.36500
C1966       C  0.38341683  0.48013534  0.67680011    -0.19600
C1967       C  0.39941179  0.49426952  0.65423050    -0.24800
C1968       C  0.40141231  0.48716270  0.62788632     0.27800
H1969       H  0.36110809  0.43490175  0.64494233     0.13600
N1970       N  0.35211510  0.44321304  0.69424980    -0.82100
H1971       H  0.40984244  0.51082919  0.65638600     0.18400
N1972       N  0.41668771  0.50173422  0.60382746    -0.80700
H1973       H  0.35783815  0.44606124  0.71735466     0.34100
H1974       H  0.34295359  0.44490057  0.69415257     0.38600
H1975       H  0.41366311  0.50901867  0.59475705     0.34000
H1976       H  0.43145949  0.51324716  0.61473721     0.30700
H1977       H  0.42241377  0.47382096  0.63043381     0.34000
H1978       H  0.43773610  0.48303073  0.59853804     0.30700
H1979       H  0.34586354  0.40026942  0.54281763     0.38600
H1980       H  0.33833892  0.41059609  0.54589491     0.34100
C1981       C  0.40644929  0.42236213  0.54889714    -0.19700
C1982       C  0.40165524  0.40900538  0.57230915     0.36600
C1983       C  0.41744486  0.41225230  0.58300725    -0.25600
C1984       C  0.43788184  0.42871968  0.57072575     0.03000
C1985       C  0.44293758  0.44307729  0.54939077     0.27800
C1986       C  0.42722420  0.43977099  0.53867784    -0.24800
N1987       N  0.38047267  0.39142087  0.58339755    -0.82100
H1988       H  0.41350545  0.40111847  0.59919084     0.13600
C1989       C  0.45227952  0.42807949  0.57361161     0.03000
N1990       N  0.46358269  0.45989993  0.53618659    -0.80700
H1991       H  0.43091062  0.44977810  0.52003108     0.18400
C1992       C  0.44649774  0.41195103  0.55708722    -0.25600
C1993       C  0.46164910  0.41449004  0.54652567     0.36500
C1994       C  0.48304452  0.43322371  0.55368644    -0.19600
C1995       C  0.48838722  0.44785842  0.57441208    -0.24800
C1996       C  0.47320043  0.44547872  0.58461789     0.27800
H1997       H  0.43468349  0.40438024  0.04497258     0.13600
N1998       N  0.46027555  0.40698743  0.01846007    -0.82100
H1999       H  0.50475034  0.46231413  0.57984985     0.18400
N2000       N  0.47981114  0.46175420  0.60382101    -0.80700
H2001       H  0.46839270  0.41575476  0.99768144     0.34100
H2002       H  0.46466139  0.40067301  0.02534772     0.38600
H2003       H  0.46702024  0.45791037  0.61018030     0.34000
H2004       H  0.48580216  0.46246529  0.62519615     0.30700
H2005       H  0.46149440  0.45755788  0.00997672     0.34000
H2006       H  0.46939996  0.47395860  0.54123584     0.30700
H2007       H  0.37656899  0.39736388  0.59508178     0.38600
H2008       H  0.37945483  0.38296917  0.60040940     0.34100
C2009       C  0.47810717  0.90358629  0.96757437    -0.19700
C2010       C  0.49480828  0.90711709  0.96765112     0.36600
C2011       C  0.49594264  0.89821113  0.94327627    -0.25600
C2012       C  0.48089633  0.88623176  0.91862766     0.03000
C2013       C  0.46456724  0.88328151  0.91824355     0.27800
C2014       C  0.46326843  0.89178783  0.94281199    -0.24800
N2015       N  0.51062304  0.91990664  0.99207435    -0.82100
H2016       H  0.50848307  0.90048851  0.94357983     0.13600
C2017       C  0.48155735  0.87597694  0.89391749     0.03000
N2018       N  0.44937004  0.87167461  0.89276663    -0.80700
H2019       H  0.45057166  0.88927866  0.94270953     0.18400
C2020       C  0.46371931  0.85422628  0.88967414    -0.25600
C2021       C  0.46249355  0.84387923  0.86485296     0.36500
C2022       C  0.47977238  0.85536144  0.84433605    -0.19600
C2023       C  0.49794395  0.87703837  0.84901127    -0.24800
C2024       C  0.49897076  0.88752772  0.87356332     0.27800
H2025       H  0.45045989  0.84532557  0.90550301     0.13600
N2026       N  0.44371780  0.82168543  0.86026500    -0.82100
H2027       H  0.51121917  0.88574386  0.83332927     0.18400
N2028       N  0.51742347  0.90981211  0.87759003    -0.80700
H2029       H  0.43252224  0.81550763  0.87751407     0.34100
H2030       H  0.43730406  0.81946843  0.83815634     0.38600
H2031       H  0.52881013  0.91591173  0.86081765     0.34000
H2032       H  0.51324823  0.91657368  0.87280367     0.30700
H2033       H  0.43830241  0.87079768  0.89616071     0.34000
H2034       H  0.45729085  0.88003192  0.87162238     0.30700
H2035       H  0.51356447  0.92555161  0.49493331     0.38600
H2036       H  0.51349092  0.90865030  0.49373864     0.34100
C2037       C  0.46960873  0.89067882  0.54189574    -0.19700
C2038       C  0.48529247  0.90382421  0.56575878     0.36600
C2039       C  0.48672775  0.89521924  0.58978220    -0.25600
C2040       C  0.47252409  0.87358748  0.59113567     0.03000
C2041       C  0.45740615  0.86050395  0.56657790     0.27800
C2042       C  0.45610545  0.86922238  0.54211538    -0.24800
N2043       N  0.49945158  0.92587773  0.56690019    -0.82100
H2044       H  0.49830513  0.90536616  0.60856119     0.13600
C2045       C  0.47268245  0.86481718  0.61974660     0.03000
N2046       N  0.44311198  0.83837297  0.56711765    -0.80700
H2047       H  0.44391942  0.85914610  0.52409341     0.18400
C2048       C  0.45453714  0.84995726  0.63853703    -0.25600
C2049       C  0.45407914  0.84151477  0.66607035     0.36500
C2050       C  0.47233648  0.84857555  0.67555671    -0.19600
C2051       C  0.49063362  0.86377645  0.65726955    -0.24800
C2052       C  0.49092212  0.87178468  0.62919710     0.27800
H2053       H  0.44064049  0.84485076  0.63155261     0.13600
N2054       N  0.43513872  0.82568798  0.68433679    -0.82100
H2055       H  0.50445297  0.86875906  0.66431808     0.18400
N2056       N  0.50948108  0.88659805  0.60986744    -0.80700
H2057       H  0.42319375  0.82240492  0.67438728     0.34100
H2058       H  0.43016462  0.81188222  0.68263350     0.38600
H2059       H  0.52147325  0.89003384  0.62006324     0.34000
H2060       H  0.50589277  0.87942580  0.58786210     0.30700
H2061       H  0.43287775  0.83095153  0.54757536     0.34000
H2062       H  0.45195951  0.83638640  0.56449646     0.30700
H2063       H  0.50725921  0.93250972  0.54506254     0.38600
H2064       H  0.49086664  0.92811540  0.57020898     0.34100
C2065       C  0.53604072  0.03464443  0.97128126    -0.19700
C2066       C  0.52080611  0.01827356  0.49143054     0.36600
C2067       C  0.50888087  0.99846912  0.47989896    -0.25600
C2068       C  0.51125597  0.99552574  0.94292977     0.03000
C2069       C  0.52718846  0.01400519  0.92494179     0.27800
C2070       C  0.53946700  0.03357443  0.93937540    -0.24800
N2071       N  0.51552924  0.01974664  0.52199927    -0.82100
H2072       H  0.49620348  0.98488373  0.49447214     0.13600
C2073       C  0.50158027  0.97512969  0.93404904     0.03000
N2074       N  0.53089353  0.01283607  0.89248778    -0.80700
H2075       H  0.55226720  0.04796312  0.92633475     0.18400
C2076       C  0.47962416  0.95768747  0.93209511    -0.25600
C2077       C  0.46879410  0.93808368  0.94344543     0.36500
C2078       C  0.48031333  0.93612224  0.95674906    -0.19600
C2079       C  0.50192150  0.95034422  0.46266980    -0.24800
C2080       C  0.51390189  0.97090197  0.45503861     0.27800
H2081       H  0.47084245  0.95993679  0.92608870     0.13600
N2082       N  0.44627983  0.92119367  0.94434123    -0.82100
H2083       H  0.50968524  0.94774800  0.47356956     0.18400
N2084       N  0.53601950  0.98784343  0.46115992    -0.80700
H2085       H  0.44097423  0.91797217  0.92076564     0.34100
H2086       H  0.44030744  0.90750654  0.95282283     0.38600
H2087       H  0.53841590  0.98741132  0.48529017     0.34000
H2088       H  0.54273277  0.98531278  0.44758500     0.30700
H2089       H  0.54289318  0.02783358  0.88252877     0.34000
H2090       H  0.53622677  0.00700199  0.89264688     0.30700
H2091       H  0.51273227  0.02788566  0.51936538     0.38600
H2092       H  0.52820335  0.02815768  0.53757261     0.34100
loop_ 
_geom_bond_atom_site_label_1 
_geom_bond_atom_site_label_2 
_geom_bond_distance 
_geom_bond_site_symmetry_2 
_ccdc_geom_bond_type 
N1            C2   1.359       .  A
N1         C1051   1.361       .  A
N1          C963   1.448       .  S
C2         C1032   1.479       .  S
C2         C1049   1.381       .  A
C3            C4   1.371       .  A
C3         C1048   1.382   1_554  A
C3            H6   1.082       .  S
C4            C5   1.381       .  A
C4            H7   1.082       .  S
C5         N1047   1.359   1_554  A
C5          C991   1.478       .  S
N8           C12   1.356       .  A
N8            C9   1.356       .  A
N8          C907   1.446       .  S
C9          C935   1.476       .  S
C9         C1056   1.384       .  A
C10          C11   1.373       .  A
C10        C1055   1.383       .  A
C10          H13   1.082       .  S
C11        C1058   1.379       .  A
C11          H14   1.082       .  S
C12        C1925   1.477   1_554  S
C12        C1057   1.379   1_554  A
N15          C20   1.356       .  A
N15          C19   1.357       .  A
N15          H47   1.039       .  S
N16          C23   1.348       .  A
N16          C24   1.351       .  A
N17          C22   1.350       .  A
N17          C21   1.351       .  A
N17          H48   1.040       .  S
N18          C25   1.351       .  A
N18          C26   1.352       .  A
C19          C27   1.387       .  A
C19          C35   1.422       .  A
C20          C36   1.421       .  A
C20          C28   1.387       .  A
C21          C29   1.388       .  A
C21          C38   1.411       .  A
C22          C37   1.407       .  A
C22          C30   1.386       .  A
C23          C35   1.413       .  A
C23          C31   1.387       .  A
C24          C38   1.410       .  A
C24          C32   1.384       .  A
C25          C33   1.389       .  A
C25          C36   1.415       .  A
C26          C34   1.384       .  A
C26          C37   1.410       .  A
C27          C28   1.379       .  A
C27          H39   1.082       .  S
C28          H40   1.082       .  S
C29          C30   1.372       .  A
C29          H41   1.082       .  S
C30          H42   1.083       .  S
C31          C32   1.375       .  A
C31          H43   1.082       .  S
C32          H44   1.082       .  S
C33          C34   1.372       .  A
C33          H45   1.082       .  S
C34          H46   1.082       .  S
C35         C976   1.493       .  S
C36        C1004   1.491       .  S
C37         C836   1.482       .  S
C38         C864   1.485       .  S
O49          C57   1.263       .  A
O49       Cr1113   1.983       .  S
O50          C51   1.261       .  A
O50       Cr1113   1.999       .  S
C51         C780   1.474       .  S
C51          O52   1.258       .  A
O52       Cr1114   1.985       .  S
O53          C54   1.265       .  A
O53       Cr1114   1.997       .  S
C54         C724   1.485       .  S
C54          O55   1.264       .  A
O55       Cr1115   1.981       .  S
O56          C57   1.267       .  A
O56       Cr1115   2.009       .  S
C57         C851   1.479       .  S
O58          C66   1.263       .  A
O58         Cr67   1.993       .  S
O59          C60   1.260       .  A
O59         Cr67   1.970       .  S
C60         C795   1.480       .  S
C60          O61   1.267       .  A
O61         Cr68   2.010       .  S
O62          C63   1.260       .  A
O62         Cr68   1.984       .  S
C63         C739   1.471       .  S
C63          O64   1.262       .  A
O64         Cr69   1.996       .  S
O65          C66   1.264       .  A
O65         Cr69   1.993       .  S
C66         C823   1.472       .  S
Cr67       O1095   1.976   1_554  S
Cr67       O1096   1.995   1_554  S
Cr67         O70   1.767       .  S
Cr68       O1098   1.983   1_554  S
Cr68       O1099   2.004   1_554  S
Cr68         O70   1.767       .  S
Cr69       O1101   1.983   1_554  S
Cr69       O1102   2.000   1_554  S
Cr69         O70   1.770       .  S
N71          C76   1.353       .  A
N71          C75   1.354       .  A
N71         H103   1.039       .  S
N72          C79   1.351       .  A
N72          C80   1.351       .  A
N73          C78   1.352       .  A
N73          C77   1.350       .  A
N73         H104   1.039       .  S
N74          C81   1.349       .  A
N74          C82   1.352       .  A
C75          C83   1.387       .  A
C75          C91   1.417       .  A
C76          C92   1.416       .  A
C76          C84   1.387       .  A
C77          C85   1.386       .  A
C77          C94   1.408       .  A
C78          C93   1.413       .  A
C78          C86   1.387       .  A
C79          C91   1.415       .  A
C79          C87   1.388       .  A
C80          C94   1.410       .  A
C80          C88   1.385       .  A
C81          C89   1.388       .  A
C81          C92   1.413       .  A
C82          C90   1.385       .  A
C82          C93   1.411       .  A
C83          C84   1.378       .  A
C83          H95   1.082       .  S
C84          H96   1.082       .  S
C85          C86   1.373       .  A
C85          H97   1.082       .  S
C86          H98   1.082       .  S
C87          C88   1.374       .  A
C87          H99   1.082       .  S
C88         H100   1.082       .  S
C89          C90   1.373       .  A
C89         H101   1.082       .  S
C90         H102   1.082       .  S
C91         C920   1.492       .  S
C92         C892   1.486       .  S
C93         C711   1.490       .  S
C94         C752   1.479       .  S
N105        C110   1.356       .  A
N105        C109   1.355       .  A
N105        H137   1.038       .  S
N106        C113   1.349       .  A
N106        C114   1.353       .  A
N107        C112   1.350       .  A
N107        C111   1.351       .  A
N107        H138   1.039       .  S
N108        C115   1.351       .  A
N108        C116   1.351       .  A
C109        C117   1.387       .  A
C109        C125   1.421       .  A
C110        C126   1.421       .  A
C110        C118   1.387       .  A
C111        C119   1.387       .  A
C111        C128   1.412       .  A
C112        C127   1.410       .  A
C112        C120   1.386       .  A
C113        C125   1.414       .  A
C113        C121   1.388       .  A
C114        C128   1.412       .  A
C114        C122   1.384       .  A
C115        C123   1.388       .  A
C115        C126   1.414       .  A
C116        C124   1.384       .  A
C116        C127   1.409       .  A
C117        C118   1.380       .  A
C117        H129   1.082       .  S
C118        H130   1.082       .  S
C119        C120   1.374       .  A
C119        H131   1.082       .  S
C120        H132   1.082       .  S
C121        C122   1.373       .  A
C121        H133   1.082       .  S
C122        H134   1.082       .  S
C123        C124   1.370       .  A
C123        H135   1.081       .  S
C124        H136   1.082       .  S
C125        C696   1.486       .  S
C126        C655   1.491       .  S
C127        C767   1.482       .  S
C128        C808   1.490       .  S
N139        C143   1.354   1_554  A
N139        C140   1.353       .  A
N139        C683   1.441       .  S
C140        C627   1.478       .  S
C140       C1187   1.379       .  A
C141        C142   1.374       .  A
C141       C1186   1.378       .  A
C141        H144   1.082   1_455  S
C142       C1189   1.387       .  A
C142        H145   1.082       .  S
C143       C1714   1.479       .  S
C143       C1188   1.386       .  A
N146        C150   1.361       .  A
N146        C147   1.358   1_655  A
N146        C571   1.451       .  S
C147        C640   1.481       .  S
C147        C148   1.379       .  A
C148       C1195   1.371   1_554  A
C148       H1197   1.082       .  S
C149       C1194   1.371       .  A
C149       C1196   1.384   1_455  A
C149        H152   1.083       .  S
C150       C1645   1.480   1_554  S
C150       C1195   1.385   1_654  A
H151       C1194   1.082       .  S
N153        C157   1.360       .  A
N153        C154   1.358       .  A
N153        C515   1.447       .  S
C154        C948   1.473       .  S
C154        C155   1.382       .  A
C155       C1202   1.369   1_554  A
C155       H1204   1.083   1_554  S
C156       C1201   1.366       .  A
C156       C1203   1.380       .  A
C156        H159   1.082       .  S
C157       C1589   1.478   1_554  S
C157       C1202   1.379   1_554  A
H158       C1201   1.083       .  S
N160        C165   1.357       .  A
N160        C164   1.355       .  A
N160        H192   1.037       .  S
N161        C168   1.348       .  A
N161        C169   1.352       .  A
N162        C167   1.349       .  A
N162        C166   1.352       .  A
N162        H193   1.039       .  S
N163        C170   1.353       .  A
N163        C171   1.352       .  A
C164        C172   1.387       .  A
C164        C180   1.422       .  A
C165        C181   1.425       .  A
C165        C173   1.388       .  A
C166        C174   1.387       .  A
C166        C183   1.411       .  A
C167        C182   1.410       .  A
C167        C175   1.388       .  A
C168        C180   1.415       .  A
C168        C176   1.389       .  A
C169        C183   1.409       .  A
C169        C177   1.383       .  A
C170        C178   1.388       .  A
C170        C181   1.419       .  A
C171        C179   1.385       .  A
C171        C182   1.412       .  A
C172        C173   1.378       .  A
C172        H184   1.082       .  S
C173        H185   1.082       .  S
C174        C175   1.370       .  A
C174        H186   1.082       .  S
C175        H187   1.082       .  S
C176        C177   1.372       .  A
C176        H188   1.083       .  S
C177        H189   1.082       .  S
C178        C179   1.370       .  A
C178        H190   1.081       .  S
C179        H191   1.082       .  S
C180        C612   1.487       .  S
C181        C584   1.498       .  S
C182        C500   1.479       .  S
C183        C472   1.486       .  S
N194        C199   1.354       .  A
N194        C198   1.356       .  A
N194        H226   1.041       .  S
N195        C202   1.349       .  A
N195        C203   1.350       .  A
N196        C201   1.348       .  A
N196        C200   1.350       .  A
N196        H227   1.040       .  S
N197        C204   1.350       .  A
N197        C205   1.353       .  A
C198        C206   1.387       .  A
C198        C214   1.420       .  A
C199        C215   1.418       .  A
C199        C207   1.387       .  A
C200        C208   1.387       .  A
C200        C217   1.407       .  A
C201        C216   1.408       .  A
C201        C209   1.387       .  A
C202        C214   1.415       .  A
C202        C210   1.389       .  A
C203        C217   1.407       .  A
C203        C211   1.384       .  A
C204        C212   1.388       .  A
C204        C215   1.416       .  A
C205        C213   1.384       .  A
C205        C216   1.412       .  A
C206        C207   1.379       .  A
C206        H218   1.082       .  S
C207        H219   1.082       .  S
C208        C209   1.373       .  A
C208        H220   1.082       .  S
C209        H221   1.083       .  S
C210        C211   1.373       .  A
C210        H222   1.082       .  S
C211        H223   1.082       .  S
C212        C213   1.376       .  A
C212        H224   1.082       .  S
C213        H225   1.082       .  S
C214        C556   1.500       .  S
C215        C528   1.492       .  S
C216        C403   1.483       .  S
C217        C444   1.479       .  S
O228        C236   1.265       .  A
O228      Cr1292   1.998       .  S
O229        C230   1.261       .  A
O229      Cr1292   1.984       .  S
C230        C431   1.474       .  S
C230        O231   1.264       .  A
O231      Cr1293   2.000       .  S
O232        C233   1.262       .  A
O232      Cr1293   1.986       .  S
C233        C360   1.488       .  S
C233        O234   1.264       .  A
O234      Cr1294   1.994       .  S
O235        C236   1.263       .  A
O235      Cr1294   1.988       .  S
C236        C459   1.484       .  S
O237        C245   1.261       .  A
O237       Cr246   1.981       .  S
O238        C239   1.263       .  A
O238       Cr246   1.992       .  S
C239        C416   1.488       .  S
C239        O240   1.262       .  A
O240       Cr247   1.986       .  S
O241        C242   1.263       .  A
O241       Cr247   1.993       .  S
C242        C375   1.464       .  S
C242        O243   1.260       .  A
O243       Cr248   1.979       .  S
O244        C245   1.263       .  A
O244       Cr248   1.995       .  S
C245        C487   1.480       .  S
Cr246      O1274   1.986   1_554  S
Cr246      O1275   1.976   1_554  S
Cr246       O249   1.767       .  S
Cr247      O1277   1.998   1_554  S
Cr247      O1278   1.990   1_554  S
Cr247       O249   1.771       .  S
Cr248      O1280   2.006   1_554  S
Cr248      O1281   1.991   1_554  S
Cr248       O249   1.768       .  S
N250        C255   1.351       .  A
N250        C254   1.352       .  A
N250        H282   1.038       .  S
N251        C258   1.349       .  A
N251        C259   1.351       .  A
N252        C257   1.349       .  A
N252        C256   1.348       .  A
N252        H283   1.039       .  S
N253        C260   1.349       .  A
N253        C261   1.350       .  A
C254        C262   1.387       .  A
C254        C270   1.415       .  A
C255        C271   1.412       .  A
C255        C263   1.386       .  A
C256        C264   1.387       .  A
C256        C273   1.408       .  A
C257        C272   1.406       .  A
C257        C265   1.386       .  A
C258        C270   1.414       .  A
C258        C266   1.388       .  A
C259        C273   1.409       .  A
C259        C267   1.384       .  A
C260        C268   1.388       .  A
C260        C271   1.411       .  A
C261        C269   1.385       .  A
C261        C272   1.407       .  A
C262        C263   1.378       .  A
C262        H274   1.082       .  S
C263        H275   1.082       .  S
C264        C265   1.374       .  A
C264        H276   1.082       .  S
C265        H277   1.082       .  S
C266        C267   1.374       .  A
C266        H278   1.082       .  S
C267        H279   1.082       .  S
C268        C269   1.370       .  A
C268        H280   1.082       .  S
C269        H281   1.082       .  S
C270        C291   1.488       .  S
C271        C332   1.482       .  S
C272        C388   1.475       .  S
C273        C347   1.478       .  S
N284        C285   1.357       .  A
N284       C1334   1.357       .  A
N284        C304   1.446       .  S
C285       C1019   1.472       .  S
C285       C1332   1.383       .  A
C286        C287   1.374       .  A
C286       C1331   1.384   1_554  A
C286        H289   1.082       .  S
C287        C288   1.380       .  A
C287        H290   1.082       .  S
C288       N1330   1.353   1_554  A
C288        C319   1.472       .  S
C291        C292   1.418       .  A
C291        C296   1.404       .  A
C292        C293   1.400       .  A
C292        N297   1.438       .  S
C293        C294   1.400       .  A
C293        H298   1.084       .  S
C294        C299   1.475       .  S
C294        C295   1.410       .  A
C295        C296   1.404       .  A
C295        N300   1.439       .  S
C296        H301   1.084       .  S
N297        H317   1.044       .  S
N297        H318   1.045       .  S
C299        C302   1.401       .  A
C299        C306   1.407       .  A
N300        H315   1.046       .  S
N300        H316   1.044       .  S
C302        C303   1.407       .  A
C302        H307   1.084       .  S
C303        C304   1.411       .  A
C303        N308   1.429       .  S
C304        C305   1.406       .  A
C305        C306   1.400       .  A
C305        H309   1.081       .  S
C306        N310   1.440       .  S
N308        H311   1.045       .  S
N308        H312   1.046       .  S
N310        H313   1.046       .  S
N310        H314   1.044       .  S
C319        C320   1.402       .  A
C319        C324   1.401       .  A
C320        C321   1.401       .  A
C320        N325   1.432       .  S
C321        C322   1.407       .  A
C321        H326   1.084       .  S
C322        C327   1.481       .  S
C322        C323   1.419       .  A
C323        C324   1.400       .  A
C323        N328   1.440       .  S
C324        H329   1.084       .  S
N325        H345   1.046       .  S
N325        H346   1.046       .  S
C327        C330   1.404       .  A
C327        C334   1.411       .  A
N328        H343   1.046       .  S
N328        H344   1.041       .  S
C330        C331   1.404       .  A
C330        H335   1.084       .  S
C331        C332   1.409       .  A
C331        N336   1.437       .  S
C332        C333   1.400       .  A
C333        C334   1.401       .  A
C333        H337   1.084       .  S
C334        N338   1.438       .  S
N336        H339   1.046       .  S
N336        H340   1.046       .  S
N338        H341   1.046       .  S
N338        H342   1.046       .  S
C347        C348   1.404       .  A
C347        C352   1.400       .  A
C348        C349   1.397       .  A
C348        N353   1.432       .  S
C349        C350   1.402       .  A
C349        H354   1.084       .  S
C350        C355   1.476       .  S
C350        C351   1.418       .  A
C351        C352   1.402       .  A
C351        N356   1.439       .  S
C352        H357   1.084       .  S
N353        H373   1.046       .  S
N353        H374   1.046       .  S
C355        C358   1.402       .  A
C355        C362   1.403       .  A
N356        H371   1.046       .  S
N356        H372   1.043       .  S
C358        C359   1.408       .  A
C358        H363   1.084       .  S
C359        C360   1.417       .  A
C359        N364   1.437       .  S
C360        C361   1.410       .  A
C361        C362   1.399       .  A
C361        H365   1.083       .  S
C362        N366   1.439       .  S
N364        H367   1.046       .  S
N364        H368   1.045       .  S
N366        H369   1.046       .  S
N366        H370   1.046       .  S
C375        C376   1.408       .  A
C375        C380   1.401       .  A
C376        C377   1.405       .  A
C376        N381   1.438       .  S
C377        C378   1.405       .  A
C377        H382   1.084       .  S
C378        C383   1.475       .  S
C378        C379   1.408       .  A
C379        C380   1.398       .  A
C379        N384   1.438       .  S
C380        H385   1.084       .  S
N381        H401   1.045       .  S
N381        H402   1.046       .  S
C383        C386   1.403       .  A
C383        C390   1.408       .  A
N384        H399   1.046       .  S
N384        H400   1.046       .  S
C386        C387   1.398       .  A
C386        H391   1.084       .  S
C387        C388   1.413       .  A
C387        N392   1.438       .  S
C388        C389   1.402       .  A
C389        C390   1.401       .  A
C389        H393   1.084       .  S
C390        N394   1.438       .  S
N392        H395   1.046       .  S
N392        H396   1.043       .  S
N394        H397   1.046       .  S
N394        H398   1.046       .  S
C403        C404   1.407       .  A
C403        C408   1.400       .  A
C404        C405   1.399       .  A
C404        N409   1.433       .  S
C405        C406   1.403       .  A
C405        H410   1.084       .  S
C406        C411   1.481       .  S
C406        C407   1.420       .  A
C407        C408   1.403       .  A
C407        N412   1.439       .  S
C408        H413   1.084       .  S
N409        H429   1.046       .  S
N409        H430   1.046       .  S
C411        C414   1.404       .  A
C411        C418   1.406       .  A
N412        H427   1.046       .  S
N412        H428   1.042       .  S
C414        C415   1.408       .  A
C414        H419   1.084       .  S
C415        C416   1.415       .  A
C415        N420   1.438       .  S
C416        C417   1.409       .  A
C417        C418   1.401       .  A
C417        H421   1.083       .  S
C418        N422   1.438       .  S
N420        H423   1.046       .  S
N420        H424   1.046       .  S
N422        H425   1.046       .  S
N422        H426   1.046       .  S
C431        C432   1.411       .  A
C431        C436   1.402       .  A
C432        C433   1.400       .  A
C432        N437   1.438       .  S
C433        C434   1.401       .  A
C433        H438   1.084       .  S
C434        C439   1.485       .  S
C434        C435   1.414       .  A
C435        C436   1.408       .  A
C435        N440   1.438       .  S
C436        H441   1.084       .  S
N437        H457   1.046       .  S
N437        H458   1.044       .  S
C439        C442   1.404       .  A
C439        C446   1.415       .  A
N440        H455   1.046       .  S
N440        H456   1.046       .  S
C442        C443   1.397       .  A
C442        H447   1.084       .  S
C443        C444   1.409       .  A
C443        N448   1.432       .  S
C444        C445   1.399       .  A
C445        C446   1.404       .  A
C445        H449   1.084       .  S
C446        N450   1.438       .  S
N448        H451   1.046       .  S
N448        H452   1.045       .  S
N450        H453   1.046       .  S
N450        H454   1.046       .  S
C459        C460   1.413       .  A
C459        C464   1.407       .  A
C460        C461   1.410       .  A
C460        N465   1.437       .  S
C461        C462   1.405       .  A
C461        H466   1.084       .  S
C462        C467   1.480       .  S
C462        C463   1.405       .  A
C463        C464   1.400       .  A
C463        N468   1.438       .  S
C464        H469   1.083       .  S
N465        H485   1.046       .  S
N465        H486   1.046       .  S
C467        C470   1.402       .  A
C467        C474   1.408       .  A
N468        H483   1.045       .  S
N468        H484   1.046       .  S
C470        C471   1.400       .  A
C470        H475   1.084       .  S
C471        C472   1.416       .  A
C471        N476   1.439       .  S
C472        C473   1.404       .  A
C473        C474   1.406       .  A
C473        H477   1.084       .  S
C474        N478   1.437       .  S
N476        H479   1.046       .  S
N476        H480   1.043       .  S
N478        H481   1.046       .  S
N478        H482   1.046       .  S
C487        C488   1.414       .  A
C487        C492   1.405       .  A
C488        C489   1.396       .  A
C488        N493   1.433       .  S
C489        C490   1.399       .  A
C489        H494   1.084       .  S
C490        C495   1.481       .  S
C490        C491   1.412       .  A
C491        C492   1.407       .  A
C491        N496   1.438       .  S
C492        H497   1.083       .  S
N493        H513   1.046       .  S
N493        H514   1.046       .  S
C495        C498   1.403       .  A
C495        C502   1.413       .  A
N496        H511   1.046       .  S
N496        H512   1.045       .  S
C498        C499   1.399       .  A
C498        H503   1.084       .  S
C499        C500   1.415       .  A
C499        N504   1.439       .  S
C500        C501   1.400       .  A
C501        C502   1.400       .  A
C501        H505   1.084       .  S
C502        N506   1.438       .  S
N504        H507   1.046       .  S
N504        H508   1.043       .  S
N506        H509   1.046       .  S
N506        H510   1.046       .  S
C515        C516   1.414       .  A
C515        C520   1.406       .  A
C516        C517   1.403       .  A
C516        N521   1.437       .  S
C517        C518   1.402       .  A
C517        H522   1.084       .  S
C518        C523   1.489       .  S
C518        C519   1.409       .  A
C519        C520   1.408       .  A
C519        N524   1.432       .  S
C520        H525   1.079       .  S
N521        H541   1.046       .  S
N521        H542   1.045       .  S
C523        C526   1.404       .  A
C523        C530   1.410       .  A
N524        H539   1.046       .  S
N524        H540   1.046       .  S
C526        C527   1.398       .  A
C526        H531   1.084       .  S
C527        C528   1.413       .  A
C527        N532   1.433       .  S
C528        C529   1.405       .  A
C529        C530   1.407       .  A
C529        H533   1.084       .  S
C530        N534   1.432       .  S
N532        H535   1.044       .  S
N532        H536   1.046       .  S
N534        H537   1.046       .  S
N534        H538   1.046       .  S
C543       C1203   1.478       .  S
C543        C544   1.412       .  A
C543        C548   1.402       .  A
C544        C545   1.400       .  A
C544        N549   1.432       .  S
C545        C546   1.406       .  A
C545        H550   1.083       .  S
C546        C551   1.493       .  S
C546        C547   1.413       .  A
C547        C548   1.405       .  A
C547        N552   1.438       .  S
C548        H553   1.084       .  S
N549        H569   1.045       .  S
N549        H570   1.045       .  S
C551        C554   1.407       .  A
C551        C558   1.410       .  A
N552        H567   1.046       .  S
N552        H568   1.046       .  S
C554        C555   1.407       .  A
C554        H559   1.083       .  S
C555        C556   1.412       .  A
C555        N560   1.438       .  S
C556        C557   1.407       .  A
C557        C558   1.405       .  A
C557        H561   1.084       .  S
C558        N562   1.438       .  S
N560        H563   1.046       .  S
N560        H564   1.045       .  S
N562        H565   1.046       .  S
N562        H566   1.046       .  S
C571        C572   1.419       .  A
C571        C576   1.409       .  A
C572        C573   1.408       .  A
C572        N577   1.435       .  S
C573        C574   1.404       .  A
C573        H578   1.084       .  S
C574        C579   1.485       .  S
C574        C575   1.406       .  A
C575        C576   1.403       .  A
C575        N580   1.439       .  S
C576        H581   1.083       .  S
N577        H597   1.041       .  S
N577        H598   1.045       .  S
C579        C582   1.403       .  A
C579        C586   1.410       .  A
N580        H595   1.046       .  S
N580        H596   1.045       .  S
C582        C583   1.409       .  A
C582        H587   1.084       .  S
C583        C584   1.413       .  A
C583        N588   1.437       .  S
C584        C585   1.405       .  A
C585        C586   1.408       .  A
C585        H589   1.084       .  S
C586        N590   1.438       .  S
N588        H591   1.046       .  S
N588        H592   1.046       .  S
N590        H593   1.046       .  S
N590        H594   1.045       .  S
C599       C1196   1.477       .  S
C599        C600   1.416       .  A
C599        C604   1.401       .  A
C600        C601   1.392       .  A
C600        N605   1.434       .  S
C601        C602   1.399       .  A
C601        H606   1.084       .  S
C602        C607   1.483       .  S
C602        C603   1.414       .  A
C603        C604   1.411       .  A
C603        N608   1.437       .  S
C604       H1655   1.083       .  S
N605        H625   1.044       .  S
N605        H626   1.044       .  S
C607        C610   1.403       .  A
C607        C614   1.410       .  A
N608        H623   1.046       .  S
N608        H624   1.045       .  S
H609       C1650   1.083       .  S
C610        C611   1.402       .  A
C610        H615   1.084       .  S
C611        C612   1.411       .  A
C611        N616   1.438       .  S
C612        C613   1.402       .  A
C613        C614   1.405       .  A
C613        H617   1.084       .  S
C614        N618   1.432       .  S
N616        H619   1.046       .  S
N616        H620   1.046       .  S
N618        H621   1.045       .  S
N618        H622   1.046       .  S
C627        C628   1.408       .  A
C627        C632   1.402       .  A
C628        C629   1.397       .  A
C628        N633   1.433       .  S
C629        C630   1.404       .  A
C629        H634   1.084       .  S
C630        C635   1.488       .  S
C630        C631   1.413       .  A
C631        C632   1.408       .  A
C631        N636   1.437   1_455  S
C632        H637   1.084   1_455  S
N633        H653   1.046       .  S
N633        H654   1.046       .  S
C635        C638   1.404   1_455  A
C635        C642   1.413       .  A
N636        H651   1.046       .  S
N636        H652   1.045       .  S
C638        C639   1.398       .  A
C638       H1689   1.083       .  S
C639        C640   1.408   1_655  A
C639       N1690   1.431       .  S
C640        C641   1.404       .  A
C641        C642   1.408       .  A
C641        H645   1.084       .  S
C642        N646   1.437       .  S
H643       C1684   1.084       .  S
N644       C1685   1.431       .  S
N644        H647   1.046       .  S
N644        H648   1.046       .  S
N646        H649   1.046       .  S
N646        H650   1.045       .  S
C655        C656   1.408       .  A
C655        C660   1.403       .  A
C656        C657   1.406       .  A
C656        N661   1.432       .  S
C657        C658   1.404       .  A
C657        H662   1.084       .  S
C658        C663   1.488       .  S
C658        C659   1.411       .  A
C659        C660   1.404       .  A
C659        N664   1.432       .  S
C660        H665   1.084       .  S
N661        H681   1.045       .  S
N661        H682   1.045       .  S
C663        C666   1.408       .  A
C663        C670   1.406       .  A
N664        H679   1.046       .  S
N664        H680   1.046       .  S
C666        C667   1.410       .  A
C666        H671   1.084       .  S
C667        C668   1.416       .  A
C667        N672   1.437       .  S
C668       C1189   1.484       .  S
C668        C669   1.405       .  A
C669        C670   1.397       .  A
C669        H673   1.084       .  S
C670        N674   1.433       .  S
N672        H675   1.045       .  S
N672       H1722   1.044       .  S
N674        H677   1.046       .  S
N674        H678   1.046       .  S
H676       N1718   1.046       .  S
C683        C684   1.410       .  A
C683        C688   1.403       .  A
C684        C685   1.398       .  A
C684        N689   1.432       .  S
C685        C686   1.399       .  A
C685        H690   1.084       .  S
C686        C691   1.486       .  S
C686        C687   1.413       .  A
C687        C688   1.410       .  A
C687        N692   1.432       .  S
C688        H693   1.083       .  S
N689        H709   1.046       .  S
N689        H710   1.046       .  S
C691        C694   1.405       .  A
C691        C698   1.413       .  A
N692        H707   1.046       .  S
N692        H708   1.045       .  S
C694        C695   1.398       .  A
C694        H699   1.084       .  S
C695        C696   1.411       .  A
C695        N700   1.433       .  S
C696        C697   1.402       .  A
C697        C698   1.408       .  A
C697        H701   1.084       .  S
C698        N702   1.437       .  S
N700        H703   1.045       .  S
N700        H704   1.045       .  S
N702        H705   1.046       .  S
N702        H706   1.046       .  S
C711        C712   1.410       .  A
C711        C716   1.404       .  A
C712        C713   1.401       .  A
C712        N717   1.432       .  S
C713        C714   1.400       .  A
C713        H718   1.084       .  S
C714        C719   1.473       .  S
C714        C715   1.409       .  A
C715        C716   1.405       .  A
C715        N720   1.438       .  S
C716        H721   1.084       .  S
N717        H737   1.045       .  S
N717        H738   1.046       .  S
C719        C722   1.396       .  A
C719        C726   1.408       .  A
N720        H735   1.046       .  S
N720        H736   1.044       .  S
C722        C723   1.399       .  A
C722        H727   1.084       .  S
C723        C724   1.417       .  A
C723        N728   1.433       .  S
C724        C725   1.407       .  A
C725        C726   1.407       .  A
C725        H729   1.083       .  S
C726        N730   1.438       .  S
N728        H731   1.046       .  S
N728        H732   1.046       .  S
N730        H733   1.046       .  S
N730        H734   1.044       .  S
C739        C740   1.413       .  A
C739        C744   1.401       .  A
C740        C741   1.402       .  A
C740        N745   1.439       .  S
C741        C742   1.399       .  A
C741        H746   1.084       .  S
C742        C747   1.477       .  S
C742        C743   1.409       .  A
C743        C744   1.404       .  A
C743        N748   1.432       .  S
C744        H749   1.084       .  S
N745        H765   1.045       .  S
N745        H766   1.046       .  S
C747        C750   1.404       .  A
C747        C754   1.406       .  A
N748        H763   1.046       .  S
N748        H764   1.045       .  S
C750        C751   1.405       .  A
C750        H755   1.084       .  S
C751        C752   1.408       .  A
C751        N756   1.437       .  S
C752        C753   1.401       .  A
C753        C754   1.400       .  A
C753        H757   1.084       .  S
C754        N758   1.432       .  S
N756        H759   1.046       .  S
N756        H760   1.045       .  S
N758        H761   1.045       .  S
N758        H762   1.046       .  S
C767        C768   1.409       .  A
C767        C772   1.402       .  A
C768        C769   1.402       .  A
C768        N773   1.438       .  S
C769        C770   1.401       .  A
C769        H774   1.084       .  S
C770        C775   1.475       .  S
C770        C771   1.409       .  A
C771        C772   1.406       .  A
C771        N776   1.437       .  S
C772        H777   1.084       .  S
N773        H793   1.046       .  S
N773        H794   1.045       .  S
C775        C778   1.399       .  A
C775        C782   1.409       .  A
N776        H791   1.045       .  S
N776        H792   1.046       .  S
C778        C779   1.401       .  A
C778        H783   1.084       .  S
C779        C780   1.410       .  A
C779        N784   1.433       .  S
C780        C781   1.403       .  A
C781        C782   1.407       .  A
C781        H785   1.084       .  S
C782        N786   1.437       .  S
N784        H787   1.046       .  S
N784       H1834   1.045       .  S
N786        H789   1.045       .  S
N786        H790   1.046       .  S
H788       N1830   1.046       .  S
C795        C796   1.412       .  A
C795        C800   1.405       .  A
C796        C797   1.406       .  A
C796        N801   1.438       .  S
C797        C798   1.404       .  A
C797        H802   1.084       .  S
C798        C803   1.486       .  S
C798        C799   1.411       .  A
C799        C800   1.404       .  A
C799        N804   1.438       .  S
C800        H805   1.084       .  S
N801        H821   1.046       .  S
N801        H822   1.046       .  S
C803        C806   1.403       .  A
C803        C810   1.413       .  A
N804        H819   1.045       .  S
N804        H820   1.046       .  S
C806        C807   1.396       .  A
C806        H811   1.084       .  S
C807        C808   1.414       .  A
C807        N812   1.433       .  S
C808        C809   1.404       .  A
C809        C810   1.408       .  A
C809        H813   1.084       .  S
C810        N814   1.438       .  S
N812        H815   1.043       .  S
N812        H816   1.045       .  S
N814        H817   1.046       .  S
N814        H818   1.046       .  S
C823        C824   1.411       .  A
C823        C828   1.403       .  A
C824        C825   1.397       .  A
C824        N829   1.433       .  S
C825        C826   1.398       .  A
C825        H830   1.084       .  S
C826        C831   1.475       .  S
C826        C827   1.409       .  A
C827        C828   1.407       .  A
C827        N832   1.432       .  S
C828        H833   1.084       .  S
N829        H849   1.046       .  S
N829        H850   1.046       .  S
C831        C834   1.403       .  A
C831        C838   1.404       .  A
N832        H847   1.046       .  S
N832        H848   1.045       .  S
C834        C835   1.404       .  A
C834        H839   1.084       .  S
C835        C836   1.408       .  A
C835        N840   1.437       .  S
C836        C837   1.403       .  A
C837        C838   1.402       .  A
C837        H841   1.084       .  S
C838        N842   1.432       .  S
N840        H843   1.046       .  S
N840        H844   1.046       .  S
N842        H845   1.046       .  S
N842        H846   1.045       .  S
C851        C852   1.410       .  A
C851        C856   1.405       .  A
C852        C853   1.407       .  A
C852        N857   1.437       .  S
C853        C854   1.403       .  A
C853        H858   1.084       .  S
C854        C859   1.476       .  S
C854        C855   1.407       .  A
C855        C856   1.403       .  A
C855        N860   1.438       .  S
C856        H861   1.083       .  S
N857        H877   1.046       .  S
N857        H878   1.046       .  S
C859        C862   1.401       .  A
C859        C866   1.409       .  A
N860        H875   1.046       .  S
N860        H876   1.044       .  S
C862        C863   1.397       .  A
C862        H867   1.084       .  S
C863        C864   1.412       .  A
C863        N868   1.433       .  S
C864        C865   1.405       .  A
C865        C866   1.406       .  A
C865        H869   1.084       .  S
C866        N870   1.438       .  S
N868        H871   1.044       .  S
N868        H872   1.045       .  S
N870        H873   1.046       .  S
N870        H874   1.044       .  S
C879       C1058   1.474       .  S
C879        C880   1.411       .  A
C879        C884   1.401       .  A
C880        C881   1.395       .  A
C880        N885   1.433       .  S
C881        C882   1.404       .  A
C881        H886   1.084       .  S
C882        C887   1.489       .  S
C882        C883   1.415       .  A
C883        C884   1.408       .  A
C883        N888   1.438       .  S
C884       H1935   1.083       .  S
N885        H905   1.045       .  S
N885        H906   1.045       .  S
C887        C890   1.406       .  A
C887        C894   1.415       .  A
N888        H903   1.046       .  S
N888        H904   1.045       .  S
H889       C1930   1.084       .  S
C890        C891   1.402       .  A
C890        H895   1.083       .  S
C891        C892   1.405       .  A
C891        N896   1.432       .  S
C892        C893   1.402       .  A
C893        C894   1.405       .  A
C893        H897   1.084       .  S
C894        N898   1.438       .  S
N896        H899   1.046       .  S
N896        H900   1.045       .  S
N898        H901   1.045       .  S
N898        H902   1.046       .  S
C907        C908   1.413       .  A
C907        C912   1.405       .  A
C908        C909   1.403       .  A
C908        N913   1.437       .  S
C909        C910   1.404       .  A
C909        H914   1.084       .  S
C910        C915   1.491       .  S
C910        C911   1.410       .  A
C911        C912   1.406       .  A
C911        N916   1.432       .  S
C912        H917   1.078       .  S
N913        H933   1.046       .  S
N913        H934   1.046       .  S
C915        C918   1.406       .  A
C915        C922   1.411       .  A
N916        H931   1.046       .  S
N916        H932   1.046       .  S
C918        C919   1.397       .  A
C918        H923   1.084       .  S
C919        C920   1.413       .  A
C919        N924   1.433       .  S
C920        C921   1.406       .  A
C921        C922   1.406       .  A
C921        H925   1.084       .  S
C922        N926   1.432       .  S
N924        H927   1.044       .  S
N924        H928   1.045       .  S
N926        H929   1.046       .  S
N926        H930   1.046       .  S
C935        C936   1.409       .  A
C935        C940   1.400       .  A
C936        C937   1.411       .  A
C936        N941   1.436       .  S
C937        C938   1.404       .  A
C937        H942   1.083       .  S
C938        C943   1.478       .  S
C938        C939   1.408       .  A
C939        C940   1.395       .  A
C939        N944   1.433       .  S
C940        H945   1.083       .  S
N941        H961   1.046       .  S
N941        H962   1.046       .  S
C943        C946   1.400       .  A
C943        C950   1.410       .  A
N944        H960   1.046       .  S
N944       H2005   1.046       .  S
C946        C947   1.394       .  A
C946       H1997   1.085       .  S
C947        C948   1.414       .  A
C947       N1998   1.434       .  S
C948        C949   1.404       .  A
C949        C950   1.410       .  A
C949        H953   1.084       .  S
C950        N954   1.438       .  S
H951       C1992   1.084       .  S
N952       C1993   1.434       .  S
N952        H955   1.045       .  S
N952        H956   1.044       .  S
N954        H957   1.046       .  S
N954        H958   1.045       .  S
H959       N1990   1.046       .  S
C963        C964   1.412       .  A
C963        C968   1.405       .  A
C964        C965   1.414       .  A
C964        N969   1.435       .  S
C965        C966   1.407       .  A
C965        H970   1.083       .  S
C966        C971   1.490       .  S
C966        C967   1.409       .  A
C967        C968   1.401       .  A
C967        N972   1.438       .  S
C968        H973   1.083       .  S
N969       H2035   1.045       .  S
N969       H2036   1.045       .  S
C971        C974   1.403       .  A
C971        C978   1.413       .  A
N972        H987   1.046       .  S
N972        H988   1.046       .  S
C974        C975   1.403       .  A
C974        H979   1.084       .  S
C975        C976   1.411       .  A
C975        N980   1.438       .  S
C976        C977   1.404       .  A
C977        C978   1.412       .  A
C977        H981   1.083       .  S
C978        N982   1.437       .  S
N980        H983   1.045       .  S
N980        H984   1.046       .  S
N982        H985   1.046       .  S
N982        H986   1.046       .  S
H989       N2015   1.045       .  S
H990       N2015   1.045       .  S
C991        C992   1.415       .  A
C991        C996   1.400       .  A
C992        C993   1.398       .  A
C992        N997   1.434       .  S
C993        C994   1.402       .  A
C993        H998   1.084       .  S
C994        C999   1.490       .  S
C994        C995   1.415       .  A
C995        C996   1.410       .  A
C995       N1000   1.437       .  S
C996       H1001   1.084       .  S
N997       H1017   1.045       .  S
N997       H1018   1.044       .  S
C999       C1002   1.405       .  A
C999       C1006   1.413       .  A
N1000      H1015   1.046       .  S
N1000      H1016   1.045       .  S
C1002      C1003   1.406       .  A
C1002      H1007   1.084       .  S
C1003      C1004   1.410       .  A
C1003      N1008   1.438       .  S
C1004      C1005   1.403       .  A
C1005      C1006   1.408       .  A
C1005      H1009   1.084       .  S
C1006      N1010   1.437       .  S
N1008      H1011   1.046       .  S
N1008      H1012   1.046       .  S
N1010      H1013   1.046       .  S
N1010      H1014   1.046       .  S
C1019      C1024   1.403       .  A
C1019      C2066   1.413       .  A
C1020      C1021   1.388   1_545  A
C1020      C2065   1.411       .  A
C1020      N1025   1.434   1_556  S
C1021      C2068   1.401       .  A
C1021      H1026   1.085       .  S
C1022      C1027   1.478       .  S
C1022      C1023   1.411   1_565  A
C1022      C2067   1.400       .  A
C1023      C1024   1.412       .  A
C1023      N1028   1.437       .  S
C1024      H1029   1.083       .  S
N1025      H1045   1.045       .  S
N1025      H1046   1.044       .  S
C1027      C1030   1.402       .  A
C1027      C2080   1.408       .  A
N1028      H1043   1.046       .  S
N1028      H1044   1.044       .  S
C1030      C1031   1.402       .  A
C1030      H1035   1.084       .  S
C1031      C1032   1.416       .  A
C1031      N1036   1.437       .  S
C1032      C2079   1.402       .  A
C1033      C1034   1.401       .  A
C1033      C2078   1.401       .  A
C1033      H1037   1.083       .  S
C1034      C2073   1.409       .  A
C1034      N1038   1.433       .  S
N1036      H1039   1.046       .  S
N1036      H1040   1.045       .  S
N1038      H1041   1.046       .  S
N1038      H1042   1.045       .  S
N1047      C1048   1.357       .  A
N1047      C2009   1.443       .  S
C1048      C2078   1.479       .  S
C1049      C1050   1.368       .  A
C1049      H1052   1.082       .  S
C1050      C1051   1.381       .  A
C1050      H1053   1.082       .  S
C1051      C2037   1.476       .  S
N1054      C1058   1.357       .  A
N1054      C1055   1.357       .  A
N1054      C1953   1.447       .  S
C1055      C1981   1.477       .  S
C1056      C1057   1.374   1_554  A
C1056      H1059   1.082       .  S
C1057      H1060   1.082       .  S
N1061      C1066   1.356       .  A
N1061      C1065   1.356       .  A
N1061      H1093   1.039       .  S
N1062      C1069   1.348       .  A
N1062      C1070   1.350       .  A
N1063      C1068   1.350       .  A
N1063      C1067   1.351       .  A
N1063      H1094   1.040       .  S
N1064      C1071   1.350       .  A
N1064      C1072   1.352       .  A
C1065      C1073   1.387       .  A
C1065      C1081   1.421       .  A
C1066      C1082   1.420       .  A
C1066      C1074   1.387       .  A
C1067      C1075   1.389       .  A
C1067      C1084   1.412       .  A
C1068      C1083   1.407       .  A
C1068      C1076   1.386       .  A
C1069      C1081   1.412       .  A
C1069      C1077   1.388       .  A
C1070      C1084   1.408       .  A
C1070      C1078   1.384       .  A
C1071      C1079   1.389       .  A
C1071      C1082   1.414       .  A
C1072      C1080   1.384       .  A
C1072      C1083   1.409       .  A
C1073      C1074   1.379       .  A
C1073      H1085   1.082       .  S
C1074      H1086   1.082       .  S
C1075      C1076   1.371       .  A
C1075      H1087   1.082       .  S
C1076      H1088   1.082       .  S
C1077      C1078   1.374       .  A
C1077      H1089   1.082       .  S
C1078      H1090   1.082       .  S
C1079      C1080   1.371       .  A
C1079      H1091   1.082       .  S
C1080      H1092   1.082       .  S
C1081      C2022   1.492       .  S
C1082      C2050   1.489       .  S
C1083      C1882   1.480       .  S
C1084      C1910   1.484       .  S
O1095      C1103   1.260       .  A
O1096      C1097   1.262       .  A
C1097      C1826   1.471       .  S
C1097      O1098   1.259       .  A
O1099      C1100   1.267       .  A
C1100      C1770   1.488       .  S
C1100      O1101   1.264       .  A
O1102      C1103   1.264       .  A
C1103      C1897   1.478       .  S
O1104      C1112   1.263       .  A
O1104     Cr1113   1.997       .  S
O1105      C1106   1.262       .  A
O1105     Cr1113   1.973       .  S
C1106      C1841   1.481       .  S
C1106      O1107   1.268       .  A
O1107     Cr1114   2.007       .  S
O1108      C1109   1.261       .  A
O1108     Cr1114   1.986       .  S
C1109      C1785   1.487       .  S
C1109      O1110   1.263       .  A
O1110     Cr1115   1.997       .  S
O1111      C1112   1.261       .  A
O1111     Cr1115   1.988       .  S
C1112      C1869   1.471       .  S
Cr1113     O1116   1.770       .  S
Cr1114     O1116   1.768       .  S
Cr1115     O1116   1.769       .  S
N1117      C1122   1.354       .  A
N1117      C1121   1.355       .  A
N1117      H1149   1.040       .  S
N1118      C1125   1.350       .  A
N1118      C1126   1.352       .  A
N1119      C1124   1.351       .  A
N1119      C1123   1.352       .  A
N1119      H1150   1.041       .  S
N1120      C1127   1.351       .  A
N1120      C1128   1.353       .  A
C1121      C1129   1.388       .  A
C1121      C1137   1.420       .  A
C1122      C1138   1.419       .  A
C1122      C1130   1.387       .  A
C1123      C1131   1.388       .  A
C1123      C1140   1.413       .  A
C1124      C1139   1.411       .  A
C1124      C1132   1.386       .  A
C1125      C1137   1.415       .  A
C1125      C1133   1.388       .  A
C1126      C1140   1.411       .  A
C1126      C1134   1.385       .  A
C1127      C1135   1.389       .  A
C1127      C1138   1.416       .  A
C1128      C1136   1.384       .  A
C1128      C1139   1.411       .  A
C1129      C1130   1.379       .  A
C1129      H1141   1.082       .  S
C1130      H1142   1.082       .  S
C1131      C1132   1.371       .  A
C1131      H1143   1.081       .  S
C1132      H1144   1.082       .  S
C1133      C1134   1.374       .  A
C1133      H1145   1.082       .  S
C1134      H1146   1.082       .  S
C1135      C1136   1.373       .  A
C1135      H1147   1.082       .  S
C1136      H1148   1.082       .  S
C1137      C1966   1.492       .  S
C1138      C1938   1.493       .  S
C1139      C1757   1.490       .  S
C1140      C1798   1.486       .  S
N1151      C1156   1.354       .  A
N1151      C1155   1.356       .  A
N1151      H1183   1.039       .  S
N1152      C1159   1.347       .  A
N1152      C1160   1.350       .  A
N1153      C1158   1.348       .  A
N1153      C1157   1.349       .  A
N1153      H1184   1.039       .  S
N1154      C1161   1.349       .  A
N1154      C1162   1.352       .  A
C1155      C1163   1.387       .  A
C1155      C1171   1.419       .  A
C1156      C1172   1.417       .  A
C1156      C1164   1.387       .  A
C1157      C1165   1.387       .  A
C1157      C1174   1.407       .  A
C1158      C1173   1.407       .  A
C1158      C1166   1.387       .  A
C1159      C1171   1.410       .  A
C1159      C1167   1.387       .  A
C1160      C1174   1.408       .  A
C1160      C1168   1.385       .  A
C1161      C1169   1.388       .  A
C1161      C1172   1.413       .  A
C1162      C1170   1.385       .  A
C1162      C1173   1.411       .  A
C1163      C1164   1.378       .  A
C1163      H1175   1.082       .  S
C1164      H1176   1.082       .  S
C1165      C1166   1.374       .  A
C1165      H1177   1.082       .  S
C1166      H1178   1.083       .  S
C1167      C1168   1.375       .  A
C1167      H1179   1.082       .  S
C1168      H1180   1.082       .  S
C1169      C1170   1.374       .  A
C1169      H1181   1.082       .  S
C1170      H1182   1.082       .  S
C1171      C1742   1.488       .  S
C1172      C1701   1.484       .  S
C1173      C1813   1.481       .  S
C1174      C1854   1.481       .  S
N1185      C1189   1.359       .  A
N1185      C1186   1.354       .  A
N1185      C1729   1.446       .  S
C1186      C1673   1.476       .  S
C1187      C1188   1.374   1_554  A
C1187      H1190   1.082   1_455  S
C1188      H1191   1.082       .  S
N1192      C1196   1.360       .  A
N1192      C1193   1.357   1_655  A
N1192      C1617   1.449       .  S
C1193      C1686   1.481       .  S
C1193      C1194   1.379       .  A
C1195      H1198   1.083       .  S
N1199      C1203   1.363       .  A
N1199      C1200   1.361       .  A
N1199      C1561   1.452       .  S
C1200      C1994   1.475       .  S
C1200      C1201   1.381       .  A
C1202      H1205   1.082       .  S
N1206      C1211   1.356       .  A
N1206      C1210   1.356       .  A
N1206      H1238   1.038       .  S
N1207      C1214   1.349       .  A
N1207      C1215   1.350       .  A
N1208      C1213   1.350       .  A
N1208      C1212   1.351       .  A
N1208      H1239   1.038       .  S
N1209      C1216   1.350       .  A
N1209      C1217   1.352       .  A
C1210      C1218   1.386       .  A
C1210      C1226   1.419       .  A
C1211      C1227   1.422       .  A
C1211      C1219   1.388       .  A
C1212      C1220   1.387       .  A
C1212      C1229   1.410       .  A
C1213      C1228   1.411       .  A
C1213      C1221   1.388       .  A
C1214      C1226   1.412       .  A
C1214      C1222   1.388       .  A
C1215      C1229   1.407       .  A
C1215      C1223   1.384       .  A
C1216      C1224   1.389       .  A
C1216      C1227   1.415       .  A
C1217      C1225   1.384       .  A
C1217      C1228   1.411       .  A
C1218      C1219   1.377       .  A
C1218      H1230   1.082       .  S
C1219      H1231   1.082       .  S
C1220      C1221   1.370       .  A
C1220      H1232   1.082       .  S
C1221      H1233   1.082       .  S
C1222      C1223   1.371       .  A
C1222      H1234   1.082       .  S
C1223      H1235   1.082       .  S
C1224      C1225   1.372       .  A
C1224      H1236   1.082       .  S
C1225      H1237   1.082       .  S
C1226      C1658   1.488       .  S
C1227      C1630   1.490       .  S
C1228      C1546   1.481       .  S
C1229      C1518   1.480       .  S
N1240      C1245   1.353       .  A
N1240      C1244   1.356       .  A
N1240      H1272   1.040       .  S
N1241      C1248   1.347       .  A
N1241      C1249   1.348       .  A
N1242      C1247   1.349       .  A
N1242      C1246   1.351       .  A
N1242      H1273   1.041       .  S
N1243      C1250   1.352       .  A
N1243      C1251   1.354       .  A
C1244      C1252   1.387       .  A
C1244      C1260   1.420       .  A
C1245      C1261   1.418       .  A
C1245      C1253   1.387       .  A
C1246      C1254   1.386       .  A
C1246      C1263   1.407       .  A
C1247      C1262   1.410       .  A
C1247      C1255   1.388       .  A
C1248      C1260   1.411       .  A
C1248      C1256   1.389       .  A
C1249      C1263   1.403       .  A
C1249      C1257   1.384       .  A
C1250      C1258   1.388       .  A
C1250      C1261   1.418       .  A
C1251      C1259   1.385       .  A
C1251      C1262   1.415       .  A
C1252      C1253   1.380       .  A
C1252      H1264   1.082       .  S
C1253      H1265   1.082       .  S
C1254      C1255   1.372       .  A
C1254      H1266   1.082       .  S
C1255      H1267   1.082       .  S
C1256      C1257   1.373       .  A
C1256      H1268   1.082       .  S
C1257      H1269   1.082       .  S
C1258      C1259   1.377       .  A
C1258      H1270   1.082       .  S
C1259      H1271   1.082       .  S
C1260      C1602   1.492       .  S
C1261      C1574   1.495       .  S
C1262      C1449   1.491       .  S
C1263      C1490   1.477       .  S
O1274      C1282   1.263       .  A
O1275      C1276   1.260       .  A
C1276      C1477   1.467       .  S
C1276      O1277   1.264       .  A
O1278      C1279   1.263       .  A
C1279      C1406   1.486       .  S
C1279      O1280   1.266       .  A
O1281      C1282   1.264       .  A
C1282      C1505   1.482       .  S
O1283      C1291   1.262       .  A
O1283     Cr1292   1.989       .  S
O1284      C1285   1.265       .  A
O1284     Cr1292   2.002       .  S
C1285      C1462   1.487       .  S
C1285      O1286   1.262       .  A
O1286     Cr1293   1.983       .  S
O1287      C1288   1.265       .  A
O1287     Cr1293   2.001       .  S
C1288      C1421   1.479       .  S
C1288      O1289   1.261       .  A
O1289     Cr1294   1.980       .  S
O1290      C1291   1.262       .  A
O1290     Cr1294   1.990       .  S
C1291      C1533   1.476       .  S
Cr1292     O1295   1.769       .  S
Cr1293     O1295   1.771       .  S
Cr1294     O1295   1.768       .  S
N1296      C1301   1.355       .  A
N1296      C1300   1.353       .  A
N1296      H1328   1.039       .  S
N1297      C1304   1.351       .  A
N1297      C1305   1.354       .  A
N1298      C1303   1.351       .  A
N1298      C1302   1.350       .  A
N1298      H1329   1.038       .  S
N1299      C1306   1.349       .  A
N1299      C1307   1.350       .  A
C1300      C1308   1.388       .  A
C1300      C1316   1.418       .  A
C1301      C1317   1.416       .  A
C1301      C1309   1.386       .  A
C1302      C1310   1.386       .  A
C1302      C1319   1.410       .  A
C1303      C1318   1.411       .  A
C1303      C1311   1.387       .  A
C1304      C1316   1.419       .  A
C1304      C1312   1.389       .  A
C1305      C1319   1.413       .  A
C1305      C1313   1.384       .  A
C1306      C1314   1.387       .  A
C1306      C1317   1.412       .  A
C1307      C1315   1.386       .  A
C1307      C1318   1.410       .  A
C1308      C1309   1.379       .  A
C1308      H1320   1.082       .  S
C1309      H1321   1.082       .  S
C1310      C1311   1.374       .  A
C1310      H1322   1.082       .  S
C1311      H1323   1.082       .  S
C1312      C1313   1.376       .  A
C1312      H1324   1.082       .  S
C1313      H1325   1.082       .  S
C1314      C1315   1.371       .  A
C1314      H1326   1.082       .  S
C1315      H1327   1.082       .  S
C1316      C1337   1.493       .  S
C1317      C1378   1.490       .  S
C1318      C1434   1.481       .  S
C1319      C1393   1.488       .  S
N1330      C1331   1.354       .  A
N1330      C1350   1.442       .  S
C1331      C2065   1.471       .  S
C1332      C1333   1.371       .  A
C1332      H1335   1.082       .  S
C1333      C1334   1.379       .  A
C1333      H1336   1.082       .  S
C1334      C1365   1.478       .  S
C1337      C1338   1.419       .  A
C1337      C1342   1.404       .  A
C1338      C1339   1.402       .  A
C1338      N1343   1.438       .  S
C1339      C1340   1.400       .  A
C1339      H1344   1.084       .  S
C1340      C1345   1.477       .  S
C1340      C1341   1.410       .  A
C1341      C1342   1.403       .  A
C1341      N1346   1.439       .  S
C1342      H1347   1.084       .  S
N1343      H1363   1.044       .  S
N1343      H1364   1.045       .  S
C1345      C1348   1.403       .  A
C1345      C1352   1.409       .  A
N1346      H1361   1.045       .  S
N1346      H1362   1.044       .  S
C1348      C1349   1.407       .  A
C1348      H1353   1.084       .  S
C1349      C1350   1.409       .  A
C1349      N1354   1.429       .  S
C1350      C1351   1.404       .  A
C1351      C1352   1.399       .  A
C1351      H1355   1.083       .  S
C1352      N1356   1.440       .  S
N1354      H1357   1.045       .  S
N1354      H1358   1.046       .  S
N1356      H1359   1.046       .  S
N1356      H1360   1.044       .  S
C1365      C1366   1.407       .  A
C1365      C1370   1.403       .  A
C1366      C1367   1.403       .  A
C1366      N1371   1.438       .  S
C1367      C1368   1.405       .  A
C1367      H1372   1.084       .  S
C1368      C1373   1.484       .  S
C1368      C1369   1.418       .  A
C1369      C1370   1.403       .  A
C1369      N1374   1.439       .  S
C1370      H1375   1.084       .  S
N1371      H1391   1.046       .  S
N1371      H1392   1.045       .  S
C1373      C1376   1.402       .  A
C1373      C1380   1.412       .  A
N1374      H1389   1.046       .  S
N1374      H1390   1.042       .  S
C1376      C1377   1.406       .  A
C1376      H1381   1.084       .  S
C1377      C1378   1.413       .  A
C1377      N1382   1.437       .  S
C1378      C1379   1.401       .  A
C1379      C1380   1.404       .  A
C1379      H1383   1.084       .  S
C1380      N1384   1.438       .  S
N1382      H1385   1.045       .  S
N1382      H1386   1.046       .  S
N1384      H1387   1.046       .  S
N1384      H1388   1.045       .  S
C1393      C1394   1.406       .  A
C1393      C1398   1.403       .  A
C1394      C1395   1.400       .  A
C1394      N1399   1.432       .  S
C1395      C1396   1.401       .  A
C1395      H1400   1.084       .  S
C1396      C1401   1.483       .  S
C1396      C1397   1.419       .  A
C1397      C1398   1.407       .  A
C1397      N1402   1.438       .  S
C1398      H1403   1.084       .  S
N1399      H1419   1.045       .  S
N1399      H1420   1.046       .  S
C1401      C1404   1.404       .  A
C1401      C1408   1.406       .  A
N1402      H1417   1.045       .  S
N1402      H1418   1.043       .  S
C1404      C1405   1.411       .  A
C1404      H1409   1.084       .  S
C1405      C1406   1.413       .  A
C1405      N1410   1.437       .  S
C1406      C1407   1.408       .  A
C1407      C1408   1.404       .  A
C1407      H1411   1.083       .  S
C1408      N1412   1.438       .  S
N1410      H1413   1.046       .  S
N1410      H1414   1.045       .  S
N1412      H1415   1.046       .  S
N1412      H1416   1.046       .  S
C1421      C1422   1.411       .  A
C1421      C1426   1.405       .  A
C1422      C1423   1.406       .  A
C1422      N1427   1.438       .  S
C1423      C1424   1.406       .  A
C1423      H1428   1.083       .  S
C1424      C1429   1.489       .  S
C1424      C1425   1.413       .  A
C1425      C1426   1.402       .  A
C1425      N1430   1.439       .  S
C1426      H1431   1.084       .  S
N1427      H1447   1.045       .  S
N1427      H1448   1.046       .  S
C1429      C1432   1.406       .  A
C1429      C1436   1.414       .  A
N1430      H1445   1.046       .  S
N1430      H1446   1.045       .  S
C1432      C1433   1.400       .  A
C1432      H1437   1.083       .  S
C1433      C1434   1.414       .  A
C1433      N1438   1.439       .  S
C1434      C1435   1.400       .  A
C1435      C1436   1.401       .  A
C1435      H1439   1.084       .  S
C1436      N1440   1.438       .  S
N1438      H1441   1.046       .  S
N1438      H1442   1.043       .  S
N1440      H1443   1.046       .  S
N1440      H1444   1.045       .  S
C1449      C1450   1.411       .  A
C1449      C1454   1.403       .  A
C1450      C1451   1.399       .  A
C1450      N1455   1.433       .  S
C1451      C1452   1.400       .  A
C1451      H1456   1.084       .  S
C1452      C1457   1.478       .  S
C1452      C1453   1.417       .  A
C1453      C1454   1.404       .  A
C1453      N1458   1.438       .  S
C1454      H1459   1.084       .  S
N1455      H1475   1.045       .  S
N1455      H1476   1.046       .  S
C1457      C1460   1.402       .  A
C1457      C1464   1.404       .  A
N1458      H1473   1.046       .  S
N1458      H1474   1.043       .  S
C1460      C1461   1.409       .  A
C1460      H1465   1.084       .  S
C1461      C1462   1.416       .  A
C1461      N1466   1.438       .  S
C1462      C1463   1.408       .  A
C1463      C1464   1.401       .  A
C1463      H1467   1.082       .  S
C1464      N1468   1.438       .  S
N1466      H1469   1.046       .  S
N1466      H1470   1.046       .  S
N1468      H1471   1.046       .  S
N1468      H1472   1.046       .  S
C1477      C1478   1.411       .  A
C1477      C1482   1.400       .  A
C1478      C1479   1.400       .  A
C1478      N1483   1.439       .  S
C1479      C1480   1.402       .  A
C1479      H1484   1.084       .  S
C1480      C1485   1.481       .  S
C1480      C1481   1.413       .  A
C1481      C1482   1.404       .  A
C1481      N1486   1.438       .  S
C1482      H1487   1.084       .  S
N1483      H1503   1.046       .  S
N1483      H1504   1.045   1_556  S
C1485      C1488   1.404       .  A
C1485      C1492   1.412       .  A
N1486      H1501   1.046       .  S
N1486      H1502   1.046       .  S
C1488      C1489   1.398       .  A
C1488      H1493   1.084       .  S
C1489      C1490   1.413       .  A
C1489      N1494   1.438       .  S
C1490      C1491   1.400       .  A
C1491      C1492   1.401       .  A
C1491      H1495   1.084       .  S
C1492      N1496   1.438       .  S
N1494      H1497   1.046       .  S
N1494      H1498   1.043       .  S
N1496      H1499   1.046       .  S
N1496      H1500   1.046       .  S
C1505      C1506   1.409       .  A
C1505      C1510   1.409       .  A
C1506      C1507   1.405       .  A
C1506      N1511   1.432       .  S
C1507      C1508   1.405       .  A
C1507      H1512   1.084       .  S
C1508      C1513   1.480       .  S
C1508      C1509   1.407       .  A
C1509      C1510   1.400       .  A
C1509      N1514   1.439       .  S
C1510      H1515   1.083       .  S
N1511      H1531   1.046       .  S
N1511      H1532   1.046       .  S
C1513      C1516   1.404       .  A
C1513      C1520   1.410       .  A
N1514      H1529   1.046       .  S
N1514      H1530   1.046       .  S
C1516      C1517   1.399       .  A
C1516      H1521   1.084       .  S
C1517      C1518   1.414       .  A
C1517      N1522   1.439       .  S
C1518      C1519   1.402       .  A
C1519      C1520   1.402       .  A
C1519      H1523   1.084       .  S
C1520      N1524   1.438       .  S
N1522      H1525   1.046       .  S
N1522      H1526   1.043       .  S
N1524      H1527   1.046       .  S
N1524      H1528   1.046       .  S
C1533      C1534   1.413       .  A
C1533      C1538   1.403       .  A
C1534      C1535   1.396       .  A
C1534      N1539   1.433       .  S
C1535      C1536   1.398       .  A
C1535      H1540   1.084       .  S
C1536      C1541   1.479       .  S
C1536      C1537   1.412       .  A
C1537      C1538   1.409       .  A
C1537      N1542   1.437       .  S
C1538      H1543   1.084       .  S
N1539      H1559   1.046       .  S
N1539      H1560   1.046       .  S
C1541      C1544   1.402       .  A
C1541      C1548   1.411       .  A
N1542      H1557   1.046       .  S
N1542      H1558   1.046       .  S
C1544      C1545   1.400       .  A
C1544      H1549   1.084       .  S
C1545      C1546   1.415       .  A
C1545      N1550   1.438       .  S
C1546      C1547   1.401       .  A
C1547      C1548   1.402       .  A
C1547      H1551   1.084       .  S
C1548      N1552   1.438       .  S
N1550      H1553   1.045       .  S
N1550      H1554   1.044       .  S
N1552      H1555   1.046       .  S
N1552      H1556   1.046       .  S
C1561      C1562   1.417       .  A
C1561      C1566   1.406       .  A
C1562      C1563   1.407       .  A
C1562      N1567   1.437       .  S
C1563      C1564   1.402       .  A
C1563      H1568   1.084       .  S
C1564      C1569   1.491       .  S
C1564      C1565   1.409       .  A
C1565      C1566   1.408       .  A
C1565      N1570   1.432       .  S
C1566      H1571   1.078       .  S
N1567      H1587   1.046       .  S
N1567      H1588   1.046       .  S
C1569      C1572   1.404       .  A
C1569      C1576   1.411       .  A
N1570      H1585   1.046       .  S
N1570      H1586   1.045       .  S
C1572      C1573   1.402       .  A
C1572      H1577   1.084       .  S
C1573      C1574   1.415       .  A
C1573      N1578   1.433       .  S
C1574      C1575   1.405       .  A
C1575      C1576   1.407       .  A
C1575      H1579   1.084       .  S
C1576      N1580   1.432       .  S
N1578      H1581   1.044       .  S
N1578      H1582   1.046       .  S
N1580      H1583   1.046       .  S
N1580      H1584   1.045       .  S
C1589      C1590   1.412       .  A
C1589      C1594   1.402       .  A
C1590      C1591   1.399       .  A
C1590      N1595   1.432       .  S
C1591      C1592   1.404       .  A
C1591      H1596   1.084       .  S
C1592      C1597   1.490       .  S
C1592      C1593   1.413       .  A
C1593      C1594   1.406       .  A
C1593      N1598   1.438       .  S
C1594      H1599   1.084       .  S
N1595      H1615   1.044   1_556  S
N1595      H1616   1.045       .  S
C1597      C1600   1.407       .  A
C1597      C1604   1.411       .  A
N1598      H1613   1.046       .  S
N1598      H1614   1.046       .  S
C1600      C1601   1.406       .  A
C1600      H1605   1.083       .  S
C1601      C1602   1.409       .  A
C1601      N1606   1.438       .  S
C1602      C1603   1.406       .  A
C1603      C1604   1.406       .  A
C1603      H1607   1.084       .  S
C1604      N1608   1.438       .  S
N1606      H1609   1.046       .  S
N1606      H1610   1.046       .  S
N1608      H1611   1.046       .  S
N1608      H1612   1.046       .  S
C1617      C1618   1.419       .  A
C1617      C1622   1.408       .  A
C1618      C1619   1.406       .  A
C1618      N1623   1.434       .  S
C1619      C1620   1.404       .  A
C1619      H1624   1.084       .  S
C1620      C1625   1.480       .  S
C1620      C1621   1.406       .  A
C1621      C1622   1.401       .  A
C1621      N1626   1.439       .  S
C1622      H1627   1.083       .  S
N1623      H1643   1.041       .  S
N1623      H1644   1.045       .  S
C1625      C1628   1.402       .  A
C1625      C1632   1.412       .  A
N1626      H1641   1.046       .  S
N1626      H1642   1.043       .  S
C1628      C1629   1.406       .  A
C1628      H1633   1.084       .  S
C1629      C1630   1.411       .  A
C1629      N1634   1.438       .  S
C1630      C1631   1.403       .  A
C1631      C1632   1.407       .  A
C1631      H1635   1.084       .  S
C1632      N1636   1.439       .  S
N1634      H1637   1.046       .  S
N1634      H1638   1.046       .  S
N1636      H1639   1.046       .  S
N1636      H1640   1.043       .  S
C1645      C1646   1.418       .  A
C1645      C1650   1.402       .  A
C1646      C1647   1.393       .  A
C1646      N1651   1.434       .  S
C1647      C1648   1.398       .  A
C1647      H1652   1.084       .  S
C1648      C1653   1.484       .  S
C1648      C1649   1.414       .  A
C1649      C1650   1.412       .  A
C1649      N1654   1.437       .  S
N1651      H1671   1.044       .  S
N1651      H1672   1.045       .  S
C1653      C1656   1.403       .  A
C1653      C1660   1.409       .  A
N1654      H1669   1.046       .  S
N1654      H1670   1.046       .  S
C1656      C1657   1.404       .  A
C1656      H1661   1.084       .  S
C1657      C1658   1.411       .  A
C1657      N1662   1.438       .  S
C1658      C1659   1.402       .  A
C1659      C1660   1.406       .  A
C1659      H1663   1.084       .  S
C1660      N1664   1.432       .  S
N1662      H1665   1.045       .  S
N1662      H1666   1.046       .  S
N1664      H1667   1.046       .  S
N1664      H1668   1.045       .  S
C1673      C1674   1.407       .  A
C1673      C1678   1.402       .  A
C1674      C1675   1.397       .  A
C1674      N1679   1.433       .  S
C1675      C1676   1.404       .  A
C1675      H1680   1.084       .  S
C1676      C1681   1.487       .  S
C1676      C1677   1.413       .  A
C1677      C1678   1.408       .  A
C1677      N1682   1.437   1_455  S
C1678      H1683   1.084   1_455  S
N1679      H1699   1.045       .  S
N1679      H1700   1.046       .  S
C1681      C1684   1.404   1_455  A
C1681      C1688   1.412       .  A
N1682      H1697   1.046       .  S
N1682      H1698   1.045       .  S
C1684      C1685   1.398       .  A
C1685      C1686   1.408   1_655  A
C1686      C1687   1.403       .  A
C1687      C1688   1.407       .  A
C1687      H1691   1.084       .  S
C1688      N1692   1.437       .  S
N1690      H1693   1.046       .  S
N1690      H1694   1.045       .  S
N1692      H1695   1.046       .  S
N1692      H1696   1.045       .  S
C1701      C1702   1.404       .  A
C1701      C1706   1.402       .  A
C1702      C1703   1.400       .  A
C1702      N1707   1.432       .  S
C1703      C1704   1.405       .  A
C1703      H1708   1.084       .  S
C1704      C1709   1.490       .  S
C1704      C1705   1.414       .  A
C1705      C1706   1.406       .  A
C1705      N1710   1.432       .  S
C1706      H1711   1.084       .  S
N1707      H1727   1.045       .  S
N1707      H1728   1.046       .  S
C1709      C1712   1.410       .  A
C1709      C1716   1.410       .  A
N1710      H1725   1.045       .  S
N1710      H1726   1.046       .  S
C1712      C1713   1.402       .  A
C1712      H1717   1.084       .  S
C1713      C1714   1.408       .  A
C1713      N1718   1.432       .  S
C1714      C1715   1.405       .  A
C1715      C1716   1.401       .  A
C1715      H1719   1.084       .  S
C1716      N1720   1.433       .  S
N1718      H1721   1.043   1_556  S
N1720      H1723   1.046       .  S
N1720      H1724   1.046       .  S
C1729      C1730   1.414       .  A
C1729      C1734   1.405       .  A
C1730      C1731   1.397       .  A
C1730      N1735   1.432       .  S
C1731      C1732   1.395       .  A
C1731      H1736   1.084       .  S
C1732      C1737   1.477       .  S
C1732      C1733   1.411       .  A
C1733      C1734   1.411       .  A
C1733      N1738   1.437       .  S
C1734      H1739   1.082       .  S
N1735      H1755   1.046       .  S
N1735      H1756   1.045       .  S
C1737      C1740   1.399       .  A
C1737      C1744   1.410       .  A
N1738      H1753   1.045       .  S
N1738      H1754   1.045       .  S
C1740      C1741   1.397       .  A
C1740      H1745   1.084       .  S
C1741      C1742   1.415       .  A
C1741      N1746   1.433       .  S
C1742      C1743   1.403       .  A
C1743      C1744   1.408       .  A
C1743      H1747   1.084       .  S
C1744      N1748   1.437       .  S
N1746      H1749   1.044       .  S
N1746      H1750   1.046       .  S
N1748      H1751   1.045       .  S
N1748      H1752   1.045       .  S
C1757      C1758   1.410       .  A
C1757      C1762   1.403       .  A
C1758      C1759   1.400       .  A
C1758      N1763   1.433       .  S
C1759      C1760   1.402       .  A
C1759      H1764   1.084       .  S
C1760      C1765   1.484       .  S
C1760      C1761   1.411       .  A
C1761      C1762   1.406       .  A
C1761      N1766   1.432       .  S
C1762      H1767   1.084       .  S
N1763      H1783   1.045       .  S
N1763      H1784   1.046       .  S
C1765      C1768   1.400       .  A
C1765      C1772   1.408       .  A
N1766      H1781   1.045       .  S
N1766      H1782   1.046       .  S
C1768      C1769   1.401       .  A
C1768      H1773   1.084       .  S
C1769      C1770   1.416       .  A
C1769      N1774   1.433       .  S
C1770      C1771   1.407       .  A
C1771      C1772   1.405       .  A
C1771      H1775   1.083       .  S
C1772      N1776   1.432       .  S
N1774      H1777   1.046       .  S
N1774      H1778   1.046       .  S
N1776      H1779   1.045       .  S
N1776      H1780   1.046       .  S
C1785      C1786   1.419       .  A
C1785      C1790   1.405       .  A
C1786      C1787   1.403       .  A
C1786      N1791   1.439       .  S
C1787      C1788   1.402       .  A
C1787      H1792   1.084       .  S
C1788      C1793   1.492       .  S
C1788      C1789   1.412       .  A
C1789      C1790   1.407       .  A
C1789      N1794   1.432       .  S
C1790      H1795   1.084       .  S
N1791      H1811   1.045       .  S
N1791      H1812   1.046       .  S
C1793      C1796   1.407       .  A
C1793      C1800   1.414       .  A
N1794      H1809   1.045       .  S
N1794      H1810   1.046       .  S
C1796      C1797   1.403       .  A
C1796      H1801   1.083       .  S
C1797      C1798   1.407       .  A
C1797      N1802   1.438       .  S
C1798      C1799   1.402       .  A
C1799      C1800   1.408       .  A
C1799      H1803   1.084       .  S
C1800      N1804   1.437       .  S
N1802      H1805   1.045       .  S
N1802      H1806   1.046       .  S
N1804      H1807   1.046       .  S
N1804      H1808   1.046       .  S
C1813      C1814   1.410       .  A
C1813      C1818   1.401       .  A
C1814      C1815   1.401       .  A
C1814      N1819   1.438       .  S
C1815      C1816   1.399       .  A
C1815      H1820   1.084       .  S
C1816      C1821   1.473       .  S
C1816      C1817   1.409       .  A
C1817      C1818   1.406       .  A
C1817      N1822   1.437       .  S
C1818      H1823   1.083       .  S
N1819      H1839   1.045       .  S
N1819      H1840   1.046       .  S
C1821      C1824   1.398       .  A
C1821      C1828   1.410       .  A
N1822      H1837   1.046       .  S
N1822      H1838   1.046       .  S
C1824      C1825   1.398       .  A
C1824      H1829   1.084       .  S
C1825      C1826   1.410       .  A
C1825      N1830   1.433       .  S
C1826      C1827   1.403       .  A
C1827      C1828   1.407       .  A
C1827      H1831   1.084       .  S
C1828      N1832   1.437       .  S
N1830      H1833   1.046       .  S
N1832      H1835   1.046       .  S
N1832      H1836   1.045       .  S
C1841      C1842   1.413       .  A
C1841      C1846   1.405       .  A
C1842      C1843   1.403       .  A
C1842      N1847   1.438       .  S
C1843      C1844   1.403       .  A
C1843      H1848   1.084       .  S
C1844      C1849   1.487       .  S
C1844      C1845   1.412       .  A
C1845      C1846   1.405       .  A
C1845      N1850   1.438       .  S
C1846      H1851   1.083       .  S
N1847      H1867   1.045       .  S
N1847      H1868   1.046       .  S
C1849      C1852   1.404       .  A
C1849      C1856   1.416       .  A
N1850      H1865   1.046       .  S
N1850      H1866   1.045       .  S
C1852      C1853   1.396       .  A
C1852      H1857   1.083       .  S
C1853      C1854   1.412       .  A
C1853      N1858   1.433       .  S
C1854      C1855   1.399       .  A
C1855      C1856   1.405       .  A
C1855      H1859   1.084       .  S
C1856      N1860   1.438       .  S
N1858      H1861   1.044       .  S
N1858      H1862   1.046       .  S
N1860      H1863   1.045       .  S
N1860      H1864   1.046       .  S
C1869      C1870   1.410       .  A
C1869      C1874   1.403       .  A
C1870      C1871   1.397       .  A
C1870      N1875   1.432       .  S
C1871      C1872   1.397       .  A
C1871      H1876   1.084       .  S
C1872      C1877   1.472       .  S
C1872      C1873   1.408       .  A
C1873      C1874   1.405       .  A
C1873      N1878   1.432       .  S
C1874      H1879   1.084       .  S
N1875      H1895   1.046       .  S
N1875      H1896   1.046       .  S
C1877      C1880   1.402       .  A
C1877      C1884   1.408       .  A
N1878      H1893   1.046       .  S
N1878      H1894   1.045       .  S
C1880      C1881   1.402       .  A
C1880      H1885   1.084       .  S
C1881      C1882   1.408       .  A
C1881      N1886   1.438       .  S
C1882      C1883   1.402       .  A
C1883      C1884   1.404       .  A
C1883      H1887   1.084       .  S
C1884      N1888   1.437       .  S
N1886      H1889   1.045       .  S
N1886      H1890   1.046       .  S
N1888      H1891   1.045       .  S
N1888      H1892   1.045       .  S
C1897      C1898   1.409       .  A
C1897      C1902   1.408       .  A
C1898      C1899   1.401       .  A
C1898      N1903   1.432       .  S
C1899      C1900   1.402       .  A
C1899      H1904   1.084       .  S
C1900      C1905   1.474       .  S
C1900      C1901   1.407       .  A
C1901      C1902   1.402       .  A
C1901      N1906   1.438       .  S
C1902      H1907   1.083       .  S
N1903      H1923   1.046       .  S
N1903      H1924   1.046       .  S
C1905      C1908   1.402       .  A
C1905      C1912   1.406       .  A
N1906      H1921   1.046       .  S
N1906      H1922   1.044       .  S
C1908      C1909   1.397       .  A
C1908      H1913   1.084       .  S
C1909      C1910   1.414       .  A
C1909      N1914   1.433       .  S
C1910      C1911   1.404       .  A
C1911      C1912   1.400       .  A
C1911      H1915   1.084       .  S
C1912      N1916   1.432       .  S
N1914      H1917   1.044       .  S
N1914      H1918   1.045       .  S
N1916      H1919   1.046       .  S
N1916      H1920   1.045       .  S
C1925      C1926   1.412       .  A
C1925      C1930   1.401       .  A
C1926      C1927   1.396       .  A
C1926      N1931   1.432       .  S
C1927      C1928   1.403       .  A
C1927      H1932   1.084       .  S
C1928      C1933   1.490       .  S
C1928      C1929   1.415       .  A
C1929      C1930   1.408       .  A
C1929      N1934   1.437       .  S
N1931      H1951   1.044       .  S
N1931      H1952   1.045       .  S
C1933      C1936   1.406       .  A
C1933      C1940   1.413       .  A
N1934      H1949   1.046       .  S
N1934      H1950   1.046       .  S
C1936      C1937   1.404       .  A
C1936      H1941   1.084       .  S
C1937      C1938   1.408       .  A
C1937      N1942   1.432       .  S
C1938      C1939   1.404       .  A
C1939      C1940   1.405       .  A
C1939      H1943   1.084       .  S
C1940      N1944   1.438       .  S
N1942      H1945   1.046       .  S
N1942      H1946   1.046       .  S
N1944      H1947   1.046       .  S
N1944      H1948   1.046       .  S
C1953      C1954   1.415       .  A
C1953      C1958   1.404       .  A
C1954      C1955   1.404       .  A
C1954      N1959   1.437       .  S
C1955      C1956   1.402       .  A
C1955      H1960   1.084       .  S
C1956      C1961   1.491       .  S
C1956      C1957   1.413       .  A
C1957      C1958   1.409       .  A
C1957      N1962   1.437       .  S
C1958      H1963   1.079       .  S
N1959      H1979   1.045       .  S
N1959      H1980   1.046       .  S
C1961      C1964   1.406       .  A
C1961      C1968   1.410       .  A
N1962      H1977   1.046       .  S
N1962      H1978   1.045       .  S
C1964      C1965   1.400       .  A
C1964      H1969   1.084       .  S
C1965      C1966   1.412       .  A
C1965      N1970   1.433       .  S
C1966      C1967   1.405       .  A
C1967      C1968   1.405       .  A
C1967      H1971   1.084       .  S
C1968      N1972   1.432       .  S
N1970      H1973   1.044       .  S
N1970      H1974   1.046       .  S
N1972      H1975   1.046       .  S
N1972      H1976   1.046       .  S
C1981      C1982   1.408       .  A
C1981      C1986   1.401       .  A
C1982      C1983   1.410       .  A
C1982      N1987   1.436       .  S
C1983      C1984   1.405       .  A
C1983      H1988   1.083       .  S
C1984      C1989   1.486       .  S
C1984      C1985   1.410       .  A
C1985      C1986   1.400       .  A
C1985      N1990   1.433       .  S
C1986      H1991   1.084       .  S
N1987      H2007   1.046       .  S
N1987      H2008   1.046       .  S
C1989      C1992   1.402       .  A
C1989      C1996   1.416       .  A
N1990      H2006   1.046       .  S
C1992      C1993   1.396       .  A
C1993      C1994   1.415       .  A
C1994      C1995   1.402       .  A
C1995      C1996   1.405       .  A
C1995      H1999   1.084       .  S
C1996      N2000   1.437       .  S
N1998      H2001   1.045   1_554  S
N1998      H2002   1.043       .  S
N2000      H2003   1.044       .  S
N2000      H2004   1.046       .  S
C2009      C2010   1.410       .  A
C2009      C2014   1.402       .  A
C2010      C2011   1.412       .  A
C2010      N2015   1.435       .  S
C2011      C2012   1.407       .  A
C2011      H2016   1.083       .  S
C2012      C2017   1.490       .  S
C2012      C2013   1.412       .  A
C2013      C2014   1.400       .  A
C2013      N2018   1.439       .  S
C2014      H2019   1.083       .  S
C2017      C2020   1.403       .  A
C2017      C2024   1.414       .  A
N2018      H2033   1.046       .  S
N2018      H2034   1.046       .  S
C2020      C2021   1.401       .  A
C2020      H2025   1.084       .  S
C2021      C2022   1.411       .  A
C2021      N2026   1.438       .  S
C2022      C2023   1.404       .  A
C2023      C2024   1.412       .  A
C2023      H2027   1.083       .  S
C2024      N2028   1.437       .  S
N2026      H2029   1.045       .  S
N2026      H2030   1.046       .  S
N2028      H2031   1.046       .  S
N2028      H2032   1.045       .  S
C2037      C2038   1.415       .  A
C2037      C2042   1.400       .  A
C2038      C2039   1.396       .  A
C2038      N2043   1.434       .  S
C2039      C2040   1.401       .  A
C2039      H2044   1.084       .  S
C2040      C2045   1.488       .  S
C2040      C2041   1.415       .  A
C2041      C2042   1.410       .  A
C2041      N2046   1.437       .  S
C2042      H2047   1.084       .  S
N2043      H2063   1.045       .  S
N2043      H2064   1.044       .  S
C2045      C2048   1.405       .  A
C2045      C2052   1.412       .  A
N2046      H2061   1.046       .  S
N2046      H2062   1.045       .  S
C2048      C2049   1.406       .  A
C2048      H2053   1.084       .  S
C2049      C2050   1.410       .  A
C2049      N2054   1.438       .  S
C2050      C2051   1.403       .  A
C2051      C2052   1.407       .  A
C2051      H2055   1.084       .  S
C2052      N2056   1.437       .  S
N2054      H2057   1.046       .  S
N2054      H2058   1.046       .  S
N2056      H2059   1.046       .  S
N2056      H2060   1.046       .  S
C2065      C2070   1.404       .  A
C2066      C2067   1.390   1_545  A
C2066      N2071   1.434       .  S
C2067      H2072   1.085       .  S
C2068      C2073   1.478       .  S
C2068      C2069   1.411   1_565  A
C2069      C2070   1.412       .  A
C2069      N2074   1.437       .  S
C2070      H2075   1.083       .  S
N2071      H2091   1.044       .  S
N2071      H2092   1.045       .  S
C2073      C2076   1.403       .  A
N2074      H2089   1.046       .  S
N2074      H2090   1.044       .  S
C2076      C2077   1.402       .  A
C2076      H2081   1.084       .  S
C2077      C2078   1.414       .  A
C2077      N2082   1.437       .  S
C2079      C2080   1.402       .  A
C2079      H2083   1.084       .  S
C2080      N2084   1.433       .  S
N2082      H2085   1.046       .  S
N2082      H2086   1.045       .  S
N2084      H2087   1.046       .  S
N2084      H2088   1.045       .  S
