geometry optimzed in LAMMPS
_audit_creation_date              2020-12-01 
_audit_creation_method            'lammps2cif' 
_symmetry_space_group_name_H-M    'P1' 
_symmetry_Int_Tables_number       1 
_symmetry_cell_setting            triclinic 
loop_ 
_symmetry_equiv_pos_as_xyz 
  x,y,z 
_cell_length_a                    30.4793145 
_cell_length_b                    34.90518174612124 
_cell_length_c                    29.42842441788637 
_cell_angle_alpha                 91.65755427430554 
_cell_angle_beta                  90.2482080701676 
_cell_angle_gamma                 90.09801706319168 
loop_ 
_atom_site_label 
_atom_site_type_symbol 
_atom_site_fract_x 
_atom_site_fract_y 
_atom_site_fract_z 
_atom_site_charge 
O1          O  0.22273958  0.20336909  0.18769077    -0.55100
C2          C  0.14028435  0.29097910  0.18679541     0.77600
O3          O  0.13526928  0.24007412  0.31192995    -0.56200
C4          C  0.25007503  0.18763667  0.21384773     0.77500
C5          C  0.25423880  0.29855172  0.28931580     0.79900
Cd6        Cd  0.19120371  0.24579005  0.24941867     1.37500
O7          O  0.14033867  0.25476402  0.18314415    -0.55100
O8          O  0.25649050  0.28625110  0.24861353    -0.53900
C9          C  0.13389058  0.20384579  0.30880462     0.79900
O10         O  0.22317068  0.28591535  0.31317188    -0.56200
O11         O  0.16279402  0.30562873  0.21889336    -0.54700
O12         O  0.25069894  0.19934265  0.25485846    -0.54700
O13         O  0.15712895  0.18821815  0.27823721    -0.53900
O14         O  0.42848865  0.45062469  0.31395691    -0.55100
C15         C  0.01252432  0.03810188  0.31543302     0.77600
O16         O  0.00195292  0.48092932  0.17947826    -0.56200
C17         C  0.40030056  0.43443835  0.28806799     0.77500
C18         C  0.39161676  0.04581861  0.21302553     0.79900
Cd19       Cd  0.45477637  0.99116248  0.24584999     1.37500
O20         O  0.50392310  0.00246517  0.31375564    -0.55100
O21         O  0.39256536  0.03534929  0.25376576    -0.53900
C22         C  0.00775989  0.44572644  0.18692401     0.79900
O23         O  0.41915238  0.03035448  0.18602411    -0.56200
O24         O  0.00507594  0.04495574  0.27425698    -0.54700
O25         O  0.40000627  0.44376207  0.24689530    -0.54700
O26         O  0.98969372  0.43311869  0.22195548    -0.53900
O27         O  0.33553707  0.45289827  0.87174943    -0.55100
C28         C  0.24637211  0.40146289  0.96086288     0.77600
O29         O  0.30616744  0.32126624  0.87143420    -0.56200
C30         C  0.35756775  0.44024989  0.83812225     0.77500
C31         C  0.39625055  0.37825342  0.96102859     0.79900
Cd32       Cd  0.32100703  0.38786981  0.90192804     1.37500
O33         O  0.26446204  0.42930645  0.94160060    -0.55100
O34         O  0.37655737  0.40960284  0.95624088    -0.53900
C35         C  0.28205354  0.33225502  0.83905894     0.79900
O36         O  0.38121561  0.34957935  0.93855022    -0.55800
O37         O  0.26306790  0.36884491  0.95309589    -0.54700
O38         O  0.36130328  0.40424816  0.83375638    -0.54700
O39         O  0.27733702  0.36806958  0.83546921    -0.53900
O40         O  0.08872279  0.30216852  0.12654766    -0.55100
C41         C  0.99635232  0.35144945  0.03768813     0.77600
O42         O  0.05509952  0.43161675  0.12324728    -0.56200
C43         C  0.11631455  0.31541262  0.15536174     0.77500
C44         C  0.14527039  0.37496710  0.03090456     0.79900
Cd45       Cd  0.07332452  0.36579130  0.09338296     1.37500
O46         O  0.01511212  0.32386669  0.05696118    -0.55100
O47         O  0.12337993  0.34450224  0.03431669    -0.53900
C48         C  0.03237045  0.41979075  0.15606852     0.79900
O49         O  0.13338111  0.40337426  0.05574743    -0.56200
O50         O  0.01389234  0.38408825  0.04327340    -0.54700
O51         O  0.12284970  0.35124375  0.15586746    -0.54700
O52         O  0.03054702  0.38387014  0.16066412    -0.53900
O53         O  0.04625021  0.06125551  0.38558259    -0.55100
C54         C  0.13996364  0.12967125  0.46387115     0.77600
O55         O  0.08006877  0.19382784  0.36697570    -0.56200
C56         C  0.03384989  0.06729091  0.34522583     0.77500
C57         C  0.98693876  0.15150824  0.45225288     0.79900
Cd58       Cd  0.06584435  0.13078746  0.40236344     1.37500
O59         O  0.12433662  0.09826604  0.44800496    -0.55100
O60         O  0.01735198  0.13188142  0.46927466    -0.53900
C61         C  0.10860669  0.18016991  0.33974617     0.79900
O62         O  0.99358266  0.16353093  0.41271465    -0.56200
O63         O  0.12090278  0.15992459  0.45217126    -0.54700
O64         O  0.03844109  0.10105082  0.33172080    -0.54700
O65         O  0.11561466  0.14448422  0.34085310    -0.53900
O66         O  0.30206380  0.19062805  0.62374150    -0.55100
C67         C  0.38905571  0.13943918  0.53485978     0.77600
O68         O  0.33814681  0.05910738  0.62270001    -0.56200
C69         C  0.28037802  0.18043066  0.65798597     0.77500
C70         C  0.23900856  0.10858718  0.54053030     0.79900
Cd71       Cd  0.31677587  0.12410906  0.59552919     1.37500
O72         O  0.37235166  0.16615942  0.55898592    -0.55100
O73         O  0.25885751  0.14037903  0.54181055    -0.53900
C74         C  0.35938820  0.07227954  0.65687437     0.79900
O75         O  0.25520675  0.08262321  0.56460609    -0.56200
O76         O  0.37205696  0.10661587  0.53848778    -0.54700
O77         O  0.27706902  0.14477377  0.66394394    -0.54700
O78         O  0.35974739  0.10831914  0.66271494    -0.53900
O79         O  0.17357548  0.29922453  0.68701510    -0.55100
C80         C  0.25823250  0.20805431  0.68859405     0.77600
O81         O  0.25213245  0.27068536  0.81628336    -0.56200
C82         C  0.14339525  0.31236303  0.71256610     0.77500
C83         C  0.14105617  0.20428648  0.77777892     0.79900
Cd84       Cd  0.20518950  0.25775211  0.74672858     1.37500
O85         O  0.25145502  0.24252091  0.67827698    -0.55100
O86         O  0.14314839  0.21429795  0.73693104    -0.53900
C87         C  0.25907038  0.30547891  0.80755536     0.79900
O88         O  0.16811551  0.21963888  0.80569005    -0.56200
O89         O  0.24299559  0.19774094  0.72609387    -0.54700
O90         O  0.14134624  0.29960641  0.75224449    -0.54700
O91         O  0.24333421  0.31698770  0.77068131    -0.53900
O92         O  0.47554100  0.04752879  0.80777207    -0.55100
C93         C  0.37960402  0.46537078  0.80622305     0.77600
O94         O  0.39251609  0.01298276  0.67920370    -0.56200
C95         C  0.50263505  0.06116090  0.77993087     0.77500
C96         C  0.49550011  0.45092233  0.71569041     0.79900
Cd97       Cd  0.43361862  0.50866787  0.74543589     1.37500
O98         O  0.38912664  0.49997570  0.81595386    -0.55100
O99         O  0.49779323  0.46779939  0.75416639    -0.53900
C100        C  0.38378716  0.04784658  0.68812103     0.79900
O101        O  0.46500488  0.46119041  0.68923254    -0.56200
O102        O  0.39227699  0.45236649  0.76808456    -0.54700
O103        O  0.50059280  0.04857897  0.73928036    -0.54700
O104        O  0.39870088  0.06160169  0.72518559    -0.53900
C105        C  0.10964435  0.17592195  0.79077119    -0.15800
C106        C  0.08284104  0.15074890  0.79466233     0.08300
C107        C  0.05157968  0.12075723  0.79219276     0.10200
C108        C  0.02534517  0.09529323  0.78515871    -0.16600
C109        C  0.11321332  0.34146153  0.69850383    -0.15800
C110        C  0.08734067  0.36726316  0.69379390     0.08300
C111        C  0.05708398  0.39803580  0.69580580     0.10200
C112        C  0.03166598  0.42388564  0.70377888    -0.16600
C113        C  0.17889157  0.13248767  0.49372176    -0.13700
C114        C  0.19916142  0.10249155  0.51223065    -0.28900
H115        H  0.19143816  0.16126252  0.50078252     0.15300
H116        H  0.18632789  0.07363062  0.50687974     0.15900
C117        C  0.42685064  0.14587489  0.50458411    -0.13700
C118        C  0.44980608  0.11594856  0.48771416    -0.28900
H119        H  0.43706057  0.17502300  0.49789381     0.15300
H120        H  0.44030762  0.08707931  0.49667392     0.15900
C121        C  0.45364359  0.34490428  0.00623301    -0.13700
C122        C  0.43523475  0.37701903  0.99073739    -0.28900
H123        H  0.43927381  0.31700579  0.99811010     0.15300
H124        H  0.44890306  0.40470041  0.00129872     0.15900
C125        C  0.20761389  0.40610480  0.99068058    -0.13700
C126        C  0.18319921  0.37524506  0.00004265    -0.28900
H127        H  0.19899419  0.43432651  0.00440468     0.15300
H128        H  0.19167711  0.34766453  0.98431401     0.15900
C129        C  0.28525758  0.32658684  0.30634923    -0.15800
C130        C  0.31221700  0.35156994  0.31266955     0.08300
C131        C  0.34372680  0.38130975  0.31142775     0.10200
C132        C  0.37005388  0.40619558  0.30393630    -0.16600
C133        C  0.36099902  0.07475747  0.19908266    -0.15800
C134        C  0.33496876  0.10033112  0.19330092     0.08300
C135        C  0.30448994  0.13102743  0.19302241     0.10200
C136        C  0.27902656  0.15726120  0.19877418    -0.16600
O137        O  0.22737714  0.69687022  0.18995847    -0.55100
C138        C  0.13818381  0.78398996  0.18958142     0.77600
O139        O  0.14627895  0.73035467  0.31859874    -0.56200
C140        C  0.25518627  0.68289859  0.21698670     0.77500
C141        C  0.25484909  0.79499888  0.28408609     0.79900
Cd142      Cd  0.19285412  0.73917271  0.24954351     1.37500
O143        O  0.14597897  0.74906535  0.18004885    -0.55100
O144        O  0.25394694  0.78389432  0.24283705    -0.53900
C145        C  0.13754412  0.69552474  0.30936956     0.79900
O146        O  0.22768655  0.77974975  0.31059531    -0.56200
O147        O  0.15386375  0.79708729  0.22661682    -0.54700
O148        O  0.25480339  0.69553383  0.25763629    -0.54700
O149        O  0.15266557  0.68187319  0.27250575    -0.53900
O150        O  0.42449169  0.95099308  0.30654093    -0.55100
C151        C  0.00490803  0.54061558  0.30869871     0.77600
O152        O  0.00258975  0.97670773  0.18527052    -0.56200
C153        C  0.39410224  0.93688309  0.28174097     0.77500
C154        C  0.39806886  0.54225090  0.21882619     0.79900
Cd155      Cd  0.46141285  0.48888683  0.25281066     1.37500
O156        O  0.51256173  0.50136981  0.31995901    -0.55100
O157        O  0.39619195  0.52931488  0.25842284    -0.53900
C158        C  0.01209332  0.94258157  0.19475691     0.79900
O159        O  0.42854740  0.52967365  0.19332157    -0.56200
O160        O  0.98083718  0.55356065  0.27781632    -0.54700
O161        O  0.39110104  0.94857985  0.24159611    -0.54700
O162        O  0.99919494  0.93129761  0.23283715    -0.53900
O163        O  0.33917142  0.95395367  0.87716526    -0.55100
C164        C  0.24579518  0.90236277  0.96665722     0.77600
O165        O  0.30749681  0.82454731  0.87202115    -0.56200
C166        C  0.35959227  0.93996409  0.84311666     0.77500
C167        C  0.39547597  0.88044506  0.96511081     0.79900
Cd168      Cd  0.31970799  0.88984926  0.90698448     1.37500
O169        O  0.25999752  0.92976236  0.94342565    -0.55100
O170        O  0.37446671  0.91139747  0.96221779    -0.53900
C171        C  0.27698993  0.83544811  0.84586718     0.79900
O172        O  0.38087178  0.85190377  0.94199314    -0.55800
O173        O  0.26656482  0.87110118  0.96298940    -0.54700
O174        O  0.35953184  0.90388066  0.83812224    -0.54700
O175        O  0.26750159  0.87077043  0.84766692    -0.53900
O176        O  0.09146600  0.79657833  0.12536443    -0.55100
C177        C  0.99644472  0.85042880  0.03991936     0.77600
O178        O  0.05659710  0.92804994  0.12911695    -0.56200
C179        C  0.11401762  0.80914423  0.15897411     0.77500
C180        C  0.14805847  0.87268505  0.03993740     0.79900
Cd181      Cd  0.07290262  0.86215614  0.09820964     1.37500
O182        O  0.01018769  0.82338297  0.06401829    -0.55100
O183        O  0.12767680  0.84144212  0.04339004    -0.53900
C184        C  0.03480521  0.91638560  0.16267495     0.79900
O185        O  0.13344138  0.90110190  0.06301597    -0.56200
O186        O  0.01842730  0.88114012  0.04224581    -0.54700
O187        O  0.11593399  0.84516634  0.16479092    -0.54700
O188        O  0.03209082  0.88047857  0.16680098    -0.53900
O189        O  0.05585790  0.55524342  0.36951265    -0.55100
C190        C  0.14453125  0.60469436  0.46168915     0.77600
O191        O  0.09337374  0.68463025  0.37522413    -0.56200
C192        C  0.02877170  0.56685904  0.34010185     0.77500
C193        C  0.99671267  0.63873104  0.46187752     0.79900
Cd194      Cd  0.07051604  0.62059853  0.40289931     1.37500
O195        O  0.12390273  0.57730063  0.44218443    -0.55100
O196        O  0.01089990  0.60514773  0.45461426    -0.53900
C197        C  0.11275927  0.67125690  0.34023961     0.79900
O198        O  0.01678883  0.66516674  0.44196079    -0.56200
O199        O  0.13039721  0.63795455  0.45450075    -0.54700
O200        O  0.02226957  0.60267231  0.33926956    -0.54700
O201        O  0.11098615  0.63532540  0.33354534    -0.53900
O202        O  0.30643476  0.70021976  0.63394981    -0.55100
C203        C  0.39599526  0.64978955  0.54125973     0.77600
O204        O  0.33589233  0.57003698  0.62189840    -0.56200
C205        C  0.27601996  0.68835906  0.65929974     0.77500
C206        C  0.24862381  0.62763946  0.53115380     0.79900
Cd207      Cd  0.31931556  0.63610726  0.59619350     1.37500
O208        O  0.38056023  0.67633856  0.56674823    -0.55100
O209        O  0.27372832  0.65640232  0.53401184    -0.53900
C210        C  0.35778239  0.58160615  0.65639709     0.79900
O211        O  0.25670543  0.60048006  0.55769158    -0.56200
O212        O  0.37573960  0.61811428  0.54104719    -0.54700
O213        O  0.26638460  0.65313181  0.65551219    -0.54700
O214        O  0.36029853  0.61746819  0.66334657    -0.53900
O215        O  0.16928111  0.79626412  0.68944560    -0.55100
C216        C  0.25228881  0.71362621  0.69159432     0.77600
O217        O  0.25816453  0.77304168  0.81408279    -0.56200
C218        C  0.13921907  0.81205268  0.71290764     0.77500
C219        C  0.13899231  0.70729650  0.79471410     0.79900
Cd220      Cd  0.19961076  0.76008449  0.75430991     1.37500
O221        O  0.25182246  0.74975798  0.68891876    -0.55100
O222        O  0.13601255  0.71728516  0.75394591    -0.53900
C223        C  0.25270187  0.80900210  0.81503296     0.79900
O224        O  0.16987507  0.72204416  0.81832354    -0.56200
O225        O  0.23014396  0.69975791  0.72330680    -0.54700
O226        O  0.13659044  0.80312427  0.75408936    -0.54700
O227        O  0.22415588  0.82158498  0.78821852    -0.53900
O228        O  0.47068597  0.55033733  0.80386526    -0.55100
C229        C  0.38383076  0.96356327  0.81128463     0.77600
O230        O  0.38681943  0.52032723  0.67664001    -0.56200
C231        C  0.49803094  0.56366779  0.77598132     0.77500
C232        C  0.50114692  0.94740236  0.72003708     0.79900
Cd233      Cd  0.43898555  0.00494349  0.74957410     1.37500
O234        O  0.39332071  0.99837367  0.81967004    -0.55100
O235        O  0.50041105  0.96097617  0.76029153    -0.53900
C236        C  0.38072457  0.55544891  0.68660327     0.79900
O237        O  0.47334909  0.96049232  0.69236176    -0.56200
O238        O  0.39801827  0.94909772  0.77443017    -0.54700
O239        O  0.49573424  0.55131076  0.73521700    -0.54700
O240        O  0.39707486  0.56777901  0.72365200    -0.53900
C241        C  0.10876060  0.67971673  0.81226651    -0.15800
C242        C  0.08221002  0.65507680  0.82020019     0.08300
C243        C  0.05110948  0.62497951  0.82199173     0.10200
C244        C  0.02570575  0.59860678  0.81673959    -0.16600
C245        C  0.10968740  0.83980068  0.69473678    -0.15800
C246        C  0.08367295  0.86476877  0.68684310     0.08300
C247        C  0.05251782  0.89465210  0.68612691     0.10200
C248        C  0.02609143  0.91989054  0.69244833    -0.16600
C249        C  0.18319785  0.59885112  0.49127756    -0.13700
C250        C  0.21125164  0.62803953  0.49926336    -0.28900
H251        H  0.18856160  0.57116538  0.50632441     0.15300
H252        H  0.20600169  0.65486440  0.48210873     0.15900
C253        C  0.43574119  0.65504244  0.51329607    -0.13700
C254        C  0.45720954  0.62431336  0.49621282    -0.28900
H255        H  0.44799157  0.68379007  0.50778376     0.15300
H256        H  0.44565021  0.59579691  0.50423778     0.15900
C257        C  0.45707173  0.84762303  0.00466722    -0.13700
C258        C  0.43545561  0.87953844  0.99340535    -0.28900
H259        H  0.44462230  0.81948537  0.99433980     0.15300
H260        H  0.44739651  0.90721570  0.00621453     0.15900
C261        C  0.20664249  0.90583736  0.99616828    -0.13700
C262        C  0.18737152  0.87388977  0.01105493    -0.28900
H263        H  0.19295189  0.93391902  0.00431150     0.15300
H264        H  0.20047733  0.84610526  0.00039533     0.15900
C265        C  0.28488927  0.82449387  0.29914991    -0.15800
C266        C  0.31026753  0.85072195  0.30510821     0.08300
C267        C  0.33981153  0.88191430  0.30438457     0.10200
C268        C  0.36480564  0.90789001  0.29740814    -0.16600
C269        C  0.36746518  0.57096481  0.20468087    -0.15800
C270        C  0.34156408  0.59652387  0.19873245     0.08300
C271        C  0.31123143  0.62719927  0.19809714     0.10200
C272        C  0.28544307  0.65319858  0.20323388    -0.16600
O273        O  0.71787604  0.19375321  0.19500868    -0.55100
C274        C  0.63219369  0.28252225  0.19008047     0.77600
O275        O  0.63424750  0.23211735  0.31917588    -0.56200
C276        C  0.74770017  0.18211051  0.22139481     0.77500
C277        C  0.74858104  0.29610409  0.28460945     0.79900
Cd278      Cd  0.68582942  0.23947590  0.25262148     1.37500
O279        O  0.64106981  0.24765877  0.18138333    -0.55100
O280        O  0.74567860  0.28511008  0.24343023    -0.53900
C281        C  0.63050672  0.19621970  0.31284767     0.79900
O282        O  0.72292786  0.28050097  0.31243426    -0.56200
O283        O  0.64617034  0.29628059  0.22753776    -0.54700
O284        O  0.74939982  0.19738220  0.26082246    -0.54700
O285        O  0.65027400  0.18182182  0.27896815    -0.53900
O286        O  0.91717453  0.45510028  0.30842742    -0.55100
C287        C  0.50893726  0.03779028  0.30678192     0.77600
O288        O  0.50732990  0.47652214  0.18269215    -0.56200
C289        C  0.89210228  0.43644147  0.28128864     0.77500
C290        C  0.89546228  0.04497558  0.22439257     0.79900
Cd291      Cd  0.95831259  0.98962592  0.25580647     1.37500
O292        O  0.99801881  0.00655947  0.32948361    -0.55100
O293        O  0.89508589  0.03275452  0.26436239    -0.53900
C294        C  0.51304272  0.44139542  0.19051935     0.79900
O295        O  0.92437604  0.03127379  0.19781642    -0.56200
O296        O  0.49098608  0.05038689  0.27155999    -0.54700
O297        O  0.89444365  0.44407587  0.23967092    -0.54700
O298        O  0.49775546  0.42968110  0.22735943    -0.53900
O299        O  0.83252005  0.44936490  0.87653469    -0.55100
C300        C  0.74349731  0.39548804  0.96583089     0.77600
O301        O  0.80292364  0.31920886  0.87789145    -0.56200
C302        C  0.86578393  0.43827603  0.85389669     0.77500
C303        C  0.89078904  0.37645824  0.97397707     0.79900
Cd304      Cd  0.82012530  0.38487531  0.90971915     1.37500
O305        O  0.75864056  0.42345310  0.94418699    -0.55100
O306        O  0.86649333  0.40568685  0.97300100    -0.53900
C307        C  0.78366239  0.33098473  0.84267090     0.79900
O308        O  0.88137529  0.34902017  0.94638170    -0.55800
O309        O  0.76407971  0.36417132  0.96172805    -0.54700
O310        O  0.87651322  0.40342276  0.85683016    -0.54700
O311        O  0.78287369  0.36687550  0.83784179    -0.53900
O312        O  0.58501406  0.29360821  0.12577251    -0.55100
C313        C  0.49301384  0.34771641  0.03588238     0.77600
O314        O  0.55657603  0.42512523  0.12465497    -0.56200
C315        C  0.60881925  0.30693221  0.15805739     0.77500
C316        C  0.64425956  0.36596631  0.03653743     0.79900
Cd317      Cd  0.56911134  0.35831311  0.09464074     1.37500
O318        O  0.50623507  0.32031631  0.05972039    -0.55100
O319        O  0.62517025  0.33451681  0.04303196    -0.53900
C320        C  0.53404436  0.41443485  0.15816171     0.79900
O321        O  0.62820054  0.39545918  0.05630414    -0.56200
O322        O  0.51519627  0.37828097  0.03890178    -0.54700
O323        O  0.61267075  0.34300754  0.16130138    -0.54700
O324        O  0.52902092  0.37870446  0.16223427    -0.53900
O325        O  0.55764083  0.05256888  0.36956102    -0.55100
C326        C  0.63856012  0.11722728  0.46848125     0.77600
O327        O  0.57881835  0.18345072  0.37259110    -0.56200
C328        C  0.53180545  0.06398127  0.33876135     0.77500
C329        C  0.48950238  0.11913599  0.45965069     0.79900
Cd330      Cd  0.56709154  0.11817298  0.40414311     1.37500
O331        O  0.63241955  0.08826430  0.44203376    -0.55100
O332        O  0.51426148  0.09037680  0.45460179    -0.53900
C333        C  0.60667505  0.17124316  0.34362560     0.79900
O334        O  0.50058273  0.14929821  0.43933831    -0.56200
O335        O  0.61138409  0.14432473  0.46572650    -0.54700
O336        O  0.52482944  0.09966704  0.33739355    -0.54700
O337        O  0.61430068  0.13561162  0.34243647    -0.53900
O338        O  0.79935018  0.19379811  0.61633730    -0.55100
C339        C  0.89879621  0.14832526  0.54427403     0.77600
O340        O  0.85599092  0.06427743  0.60693580    -0.56200
C341        C  0.78366930  0.18421574  0.65422628     0.77500
C342        C  0.74473077  0.10393944  0.53698557     0.79900
Cd343      Cd  0.81981124  0.12656745  0.59251259     1.37500
O344        O  0.89661334  0.14892948  0.58710041    -0.55100
O345        O  0.75267664  0.13804434  0.55002031    -0.53900
C346        C  0.85366126  0.06826850  0.64977708     0.79900
O347        O  0.77165041  0.07886663  0.54985285    -0.56200
O348        O  0.86348741  0.14086915  0.52309786    -0.54700
O349        O  0.78631874  0.14918810  0.66354389    -0.54700
O350        O  0.83237096  0.09672420  0.66522127    -0.53900
O351        O  0.67345193  0.30127459  0.69104978    -0.55100
C352        C  0.76148545  0.21131724  0.68563433     0.77600
O353        O  0.75087344  0.27098816  0.81897711    -0.56200
C354        C  0.64388269  0.31311555  0.71815387     0.77500
C355        C  0.64679904  0.20155529  0.77732173     0.79900
Cd356      Cd  0.70806224  0.25821085  0.74709002     1.37500
O357        O  0.74843821  0.24403033  0.67398895    -0.55100
O358        O  0.64581919  0.21413179  0.73748919    -0.53900
C359        C  0.76142837  0.30493220  0.80968162     0.79900
O360        O  0.67555481  0.21557191  0.80422690    -0.56200
O361        O  0.75240576  0.20189078  0.72558854    -0.54700
O362        O  0.64371843  0.29934801  0.75739813    -0.54700
O363        O  0.74989281  0.31616694  0.77102367    -0.53900
O364        O  0.97603292  0.04473712  0.80015518    -0.55100
C365        C  0.89123899  0.46362302  0.82482954     0.77600
O366        O  0.90400651  0.01814437  0.66614923    -0.56200
C367        C  0.99501690  0.06543495  0.77162575     0.77500
C368        C  0.00249431  0.45319063  0.72112966     0.79900
Cd369      Cd  0.94276606  0.50811152  0.76215655     1.37500
O370        O  0.88135467  0.49827772  0.81836728    -0.55100
O371        O  0.00961495  0.46929157  0.75943793    -0.53900
C372        C  0.87763878  0.04357447  0.68057403     0.79900
O373        O  0.96817485  0.46312342  0.70008178    -0.56200
O374        O  0.92462081  0.45099370  0.80421186    -0.54700
O375        O  0.98635385  0.05863403  0.73018885    -0.54700
O376        O  0.87554663  0.04897196  0.72316452    -0.53900
C377        C  0.61686635  0.17204708  0.79058026    -0.15800
C378        C  0.59118303  0.14633378  0.79662688     0.08300
C379        C  0.56052483  0.11588928  0.79765063     0.10200
C380        C  0.53401153  0.09032882  0.79291020    -0.16600
C381        C  0.61205202  0.34149839  0.70584818    -0.15800
C382        C  0.58479308  0.36610800  0.70055525     0.08300
C383        C  0.55285121  0.39554370  0.69967279     0.10200
C384        C  0.52608272  0.42091374  0.70375461    -0.16600
C385        C  0.67575022  0.12137821  0.50041646    -0.13700
C386        C  0.70635248  0.09454390  0.50766741    -0.28900
H387        H  0.67860721  0.14911934  0.51803675     0.15300
H388        H  0.70374318  0.06627899  0.49136563     0.15900
C389        C  0.94130539  0.15297600  0.52109586    -0.13700
C390        C  0.94482647  0.15783156  0.47610919    -0.28900
H391        H  0.97079093  0.14898733  0.54128730     0.15300
H392        H  0.91578879  0.16357825  0.45591725     0.15900
C393        C  0.95596696  0.34647946  0.01013540    -0.13700
C394        C  0.92907668  0.37647885  0.00467882    -0.28900
H395        H  0.94842270  0.31867772  0.99440812     0.15300
H396        H  0.93635199  0.40347182  0.02259971     0.15900
C397        C  0.70365945  0.39858124  0.99419700    -0.13700
C398        C  0.68369259  0.36660314  0.00793866    -0.28900
H399        H  0.69029216  0.42668112  0.00292555     0.15300
H400        H  0.69669160  0.33876493  0.99730495     0.15900
C401        C  0.77943839  0.32558982  0.29816317    -0.15800
C402        C  0.80579388  0.35128445  0.30316142     0.08300
C403        C  0.83657882  0.38169788  0.30238134     0.10200
C404        C  0.86237798  0.40731211  0.29613014    -0.16600
C405        C  0.86445843  0.07351721  0.21058786    -0.15800
C406        C  0.83740911  0.09810923  0.20432652     0.08300
C407        C  0.80523148  0.12732260  0.20330700     0.10200
C408        C  0.77827055  0.15244501  0.20817885    -0.16600
O409        O  0.71262231  0.69408740  0.18860839    -0.55100
C410        C  0.63209798  0.78446592  0.18694015     0.77600
O411        O  0.63339987  0.73244047  0.31468287    -0.56200
C412        C  0.74549889  0.68383337  0.21178309     0.77500
C413        C  0.74913464  0.79522143  0.28239496     0.79900
Cd414      Cd  0.68522459  0.74008637  0.24844042     1.37500
O415        O  0.63947180  0.74936681  0.17806994    -0.55100
O416        O  0.74598323  0.78545612  0.24084217    -0.53900
C417        C  0.63250127  0.69621906  0.31122157     0.79900
O418        O  0.72296407  0.77936644  0.30946873    -0.56200
O419        O  0.64678540  0.79769778  0.22434032    -0.54700
O420        O  0.75101542  0.70025442  0.25020966    -0.54700
O421        O  0.65374718  0.68131609  0.27861884    -0.53900
O422        O  0.92294118  0.94912093  0.31394548    -0.55100
C423        C  0.51419185  0.53719332  0.31452731     0.77600
O424        O  0.50467627  0.97923300  0.17856336    -0.56200
C425        C  0.89668200  0.93294229  0.28584231     0.77500
C426        C  0.88866839  0.54433833  0.21077364     0.79900
Cd427      Cd  0.95233194  0.49220782  0.24702528     1.37500
O428        O  0.00615846  0.50450164  0.31137210    -0.55100
O429        O  0.88514949  0.53040905  0.24973041    -0.53900
C430        C  0.50933878  0.94387158  0.18572584     0.79900
O431        O  0.92102860  0.53332499  0.18683908    -0.56200
O432        O  0.49405543  0.54942538  0.28039083    -0.54700
O433        O  0.89844770  0.94336231  0.24509838    -0.54700
O434        O  0.49040401  0.93144102  0.22033022    -0.53900
O435        O  0.83942014  0.95175846  0.87209586    -0.55100
C436        C  0.74687989  0.89982258  0.96128710     0.77600
O437        O  0.80994592  0.82061674  0.87542565    -0.56200
C438        C  0.86207865  0.93799671  0.83943893     0.77500
C439        C  0.89852744  0.87947550  0.96526720     0.79900
Cd440      Cd  0.82376545  0.88757895  0.90472001     1.37500
O441        O  0.76178336  0.92711502  0.93838706    -0.55100
O442        O  0.87885518  0.91072213  0.95928647    -0.53900
C443        C  0.78680958  0.83110356  0.84206755     0.79900
O444        O  0.88355605  0.85033036  0.94361545    -0.55800
O445        O  0.76784526  0.86867673  0.95839574    -0.54700
O446        O  0.86597916  0.90192880  0.83701186    -0.54700
O447        O  0.78211845  0.86680131  0.83759522    -0.53900
O448        O  0.58757556  0.79717525  0.12127735    -0.55100
C449        C  0.49704407  0.85086415  0.03326271     0.77600
O450        O  0.55767676  0.92886413  0.12307263    -0.56200
C451        C  0.60981976  0.80971166  0.15510533     0.77500
C452        C  0.64838772  0.87101749  0.03423968     0.79900
Cd453      Cd  0.57253101  0.86249689  0.09209692     1.37500
O454        O  0.51153145  0.82337205  0.05611962    -0.55100
O455        O  0.62891961  0.83964014  0.04003224    -0.53900
C456        C  0.53333711  0.91751104  0.15489034     0.79900
O457        O  0.63273741  0.90024264  0.05497004    -0.56200
O458        O  0.51820533  0.88196683  0.03668380    -0.54700
O459        O  0.61335635  0.84573466  0.15994046    -0.54700
O460        O  0.52918368  0.88164690  0.15841816    -0.53900
O461        O  0.56348845  0.55404305  0.37661850    -0.55100
C462        C  0.64623613  0.62109429  0.47181119     0.77600
O463        O  0.58258415  0.68463474  0.37292502    -0.56200
C464        C  0.53616473  0.56426218  0.34655843     0.77500
C465        C  0.49690235  0.62584891  0.46784155     0.79900
Cd466      Cd  0.57272100  0.62095699  0.40941406     1.37500
O467        O  0.63578799  0.59027131  0.45039695    -0.55100
O468        O  0.51966724  0.59596086  0.46198403    -0.53900
C469        C  0.61007129  0.67183119  0.34394274     0.79900
O470        O  0.50947394  0.65545741  0.44737817    -0.56200
O471        O  0.62250668  0.64998186  0.46502606    -0.54700
O472        O  0.52739414  0.59966542  0.34547218    -0.54700
O473        O  0.61864219  0.63638702  0.34482072    -0.53900
O474        O  0.80681662  0.68911816  0.62294241    -0.55100
C475        C  0.89589654  0.62093885  0.53660668     0.77600
O476        O  0.83328392  0.56066523  0.64347062    -0.56200
C477        C  0.79009167  0.68065336  0.66075776     0.77500
C478        C  0.74678187  0.60315529  0.54744980     0.79900
Cd479      Cd  0.82443941  0.62080302  0.60094397     1.37500
O480        O  0.88630717  0.65160576  0.55856781    -0.55100
O481        O  0.76618039  0.63520774  0.54716469    -0.53900
C482        C  0.86656694  0.57306840  0.66544300     0.79900
O483        O  0.76324103  0.57815590  0.57279772    -0.56200
O484        O  0.87199251  0.59215081  0.54346212    -0.54700
O485        O  0.79123917  0.64575871  0.67101983    -0.54700
O486        O  0.87892667  0.60696529  0.65807614    -0.53900
O487        O  0.67858533  0.79745514  0.69172021    -0.55100
C488        C  0.76795368  0.70875803  0.69087764     0.77600
O489        O  0.75739288  0.76933738  0.81977728    -0.56200
C490        C  0.64897264  0.81002925  0.71834469     0.77500
C491        C  0.64970391  0.69868188  0.77703799     0.79900
Cd492      Cd  0.71221592  0.75548780  0.74937680     1.37500
O493        O  0.75267672  0.74007318  0.67696778    -0.55100
O494        O  0.65461205  0.70751698  0.73605599    -0.53900
C495        C  0.76482371  0.80391423  0.81038465     0.79900
O496        O  0.67346110  0.71623065  0.80636276    -0.56200
O497        O  0.76054656  0.70122053  0.73184950    -0.54700
O498        O  0.64828696  0.79699502  0.75795497    -0.54700
O499        O  0.75040847  0.81484819  0.77265359    -0.53900
O500        O  0.96693084  0.55421559  0.82422697    -0.55100
C501        C  0.88416792  0.96198170  0.80620188     0.77600
O502        O  0.88244716  0.51489341  0.70424326    -0.56200
C503        C  0.99818291  0.56741177  0.80099535     0.77500
C504        C  0.99586747  0.94898968  0.70758941     0.79900
Cd505      Cd  0.93517874  0.00522093  0.74215171     1.37500
O506        O  0.88994995  0.99765079  0.81246789    -0.55100
O507        O  0.00221718  0.96725774  0.74475695    -0.53900
C508        C  0.89070200  0.54988803  0.69786091     0.79900
O509        O  0.96153160  0.95681969  0.68537541    -0.56200
O510        O  0.89996601  0.94724524  0.77017624    -0.54700
O511        O  0.00416601  0.55243560  0.76199783    -0.54700
O512        O  0.92186714  0.56450410  0.72065624    -0.53900
C513        C  0.61835269  0.66981802  0.78899898    -0.15800
C514        C  0.59101351  0.64519444  0.79392243     0.08300
C515        C  0.55827247  0.61637055  0.79411725     0.10200
C516        C  0.53033544  0.59201047  0.78910913    -0.16600
C517        C  0.61770249  0.83853916  0.70526845    -0.15800
C518        C  0.59071978  0.86341557  0.70050252     0.08300
C519        C  0.55896524  0.89296639  0.70136389     0.10200
C520        C  0.53215810  0.91806731  0.70711137    -0.16600
C521        C  0.68472848  0.62504590  0.50211376    -0.13700
C522        C  0.70716433  0.59565366  0.51927578    -0.28900
H523        H  0.69489650  0.65423040  0.51095585     0.15300
H524        H  0.69629240  0.56630233  0.51289959     0.15900
C525        C  0.93333350  0.61712463  0.50521201    -0.13700
C526        C  0.95877255  0.64626584  0.49212089    -0.28900
H527        H  0.94030972  0.58824935  0.49233888     0.15300
H528        H  0.95156735  0.67552064  0.50332601     0.15900
C529        C  0.95672484  0.84703215  0.01072099    -0.13700
C530        C  0.93752046  0.87883583  0.99520082    -0.28900
H531        H  0.94284323  0.81890564  0.00281326     0.15300
H532        H  0.95080875  0.90671566  0.00551194     0.15900
C533        C  0.70700723  0.90339522  0.98979148    -0.13700
C534        C  0.68780109  0.87165848  0.00539720    -0.28900
H535        H  0.69304924  0.93152313  0.99712420     0.15300
H536        H  0.70129168  0.84375357  0.99582409     0.15900
C537        C  0.78095774  0.82352242  0.29725825    -0.15800
C538        C  0.80822050  0.84835386  0.30342962     0.08300
C539        C  0.83991741  0.87813330  0.30386464     0.10200
C540        C  0.86630384  0.90353945  0.29874844    -0.16600
C541        C  0.85776244  0.57250845  0.19580322    -0.15800
C542        C  0.83137318  0.59770201  0.18992152     0.08300
C543        C  0.80061856  0.62807892  0.19019521     0.10200
C544        C  0.77491015  0.65398064  0.19649975    -0.16600
loop_ 
_geom_bond_atom_site_label_1 
_geom_bond_atom_site_label_2 
_geom_bond_distance 
_geom_bond_site_symmetry_2 
_ccdc_geom_bond_type 
O1            C4   1.268       .  A
O1           Cd6   2.506       .  S
C2           O11   1.261       .  A
C2            O7   1.266       .  A
C2           C43   1.469       .  S
O3            C9   1.266       .  A
O3           Cd6   2.525       .  S
C4           O12   1.263       .  A
C4          C136   1.442       .  S
C5           O10   1.267       .  A
C5            O8   1.263       .  A
C5          C129   1.438       .  S
Cd6          O13   2.436       .  S
Cd6          O12   2.442       .  S
Cd6          O11   2.455       .  S
Cd6           O7   2.513       .  S
Cd6          O10   2.502       .  S
Cd6           O8   2.439       .  S
C9           O13   1.260       .  A
C9           C61   1.467       .  S
O14          C17   1.267       .  A
O14        Cd155   2.486       .  S
C15          O24   1.262       .  A
C15         O292   1.267   1_455  A
C15          C56   1.473       .  S
O16          C22   1.267       .  A
O16        Cd427   2.525   1_455  S
C17          O25   1.264       .  A
C17         C132   1.438       .  S
C18          O23   1.269       .  A
C18          O21   1.264       .  A
C18         C133   1.443       .  S
Cd19         O20   2.514   1_565  S
Cd19         O23   2.506   1_565  S
Cd19         O21   2.454   1_565  S
Cd19        O150   2.482       .  S
Cd19        O424   2.527       .  S
Cd19        O434   2.452       .  S
Cd19        O161   2.443       .  S
Cd19        O296   2.441   1_565  S
O20         C287   1.265       .  A
C22          O26   1.261   1_455  A
C22          C48   1.472       .  S
O24        Cd291   2.445   1_445  S
O25        Cd155   2.447       .  S
O26        Cd427   2.454       .  S
O27          C30   1.268       .  A
O27         Cd32   2.501       .  S
C28          O37   1.263       .  A
C28          O33   1.266       .  A
C28         C125   1.481       .  S
O29          C35   1.269       .  A
O29         Cd32   2.507       .  S
C30          O38   1.265       .  A
C30          C93   1.467       .  S
C31          O36   1.268       .  A
C31          O34   1.260       .  A
C31         C122   1.474       .  S
Cd32         O39   2.443       .  S
Cd32         O38   2.438       .  S
Cd32         O37   2.430       .  S
Cd32         O33   2.521       .  S
Cd32         O36   2.528       .  S
Cd32         O34   2.429       .  S
C35          O39   1.266       .  A
C35          C87   1.472       .  S
O40          C43   1.269       .  A
O40         Cd45   2.496       .  S
C41          O50   1.264   1_655  A
C41          O46   1.267   1_655  A
C41         C393   1.478       .  S
O42          C48   1.269       .  A
O42         Cd45   2.500       .  S
C43          O51   1.266       .  A
C44          O49   1.269       .  A
C44          O47   1.261       .  A
C44         C126   1.473       .  S
Cd45         O52   2.444       .  S
Cd45         O51   2.439       .  S
Cd45         O50   2.429       .  S
Cd45         O46   2.514       .  S
Cd45         O49   2.528       .  S
Cd45         O47   2.419       .  S
C48          O52   1.266       .  A
O53          C56   1.268       .  A
O53         Cd58   2.533       .  S
C54          O63   1.262       .  A
C54          O59   1.270       .  A
C54         C113   1.475       .  S
O55          C61   1.269       .  A
O55         Cd58   2.500       .  S
C56          O64   1.262       .  A
C57          O62   1.265       .  A
C57          O60   1.264   1_655  A
C57         C390   1.479       .  S
Cd58         O65   2.424       .  S
Cd58         O64   2.440       .  S
Cd58         O63   2.426       .  S
Cd58         O59   2.519       .  S
Cd58         O62   2.499   1_455  S
Cd58         O60   2.467       .  S
C61          O65   1.265       .  A
O66          C69   1.267       .  A
O66         Cd71   2.485       .  S
C67          O76   1.264       .  A
C67          O72   1.265       .  A
C67         C117   1.480       .  S
O68          C74   1.268       .  A
O68         Cd71   2.513       .  S
C69          O77   1.266       .  A
C69          C80   1.468       .  S
C70          O75   1.266       .  A
C70          O73   1.263       .  A
C70         C114   1.481       .  S
Cd71         O78   2.444       .  S
Cd71         O77   2.445       .  S
Cd71         O76   2.449       .  S
Cd71         O72   2.506       .  S
Cd71         O75   2.519       .  S
Cd71         O73   2.443       .  S
C74          O78   1.265       .  A
C74         C100   1.472       .  S
O79          C82   1.269       .  A
O79         Cd84   2.500       .  S
C80          O89   1.261       .  A
C80          O85   1.266       .  A
O81          C87   1.266       .  A
O81         Cd84   2.522       .  S
C82          O90   1.263       .  A
C82         C109   1.440       .  S
C83          O88   1.269       .  A
C83          O86   1.263       .  A
C83         C105   1.437       .  S
Cd84         O91   2.454       .  S
Cd84         O90   2.438       .  S
Cd84         O89   2.455       .  S
Cd84         O85   2.509       .  S
Cd84         O88   2.491       .  S
Cd84         O86   2.433       .  S
C87          O91   1.261       .  A
O92          C95   1.268       .  A
O92        Cd233   2.493       .  S
C93         O102   1.261       .  A
C93          O98   1.266       .  A
O94         C100   1.266       .  A
O94        Cd233   2.526       .  S
C95         O103   1.264       .  A
C95         C380   1.438       .  S
C96         O101   1.269       .  A
C96          O99   1.263       .  A
C96         C384   1.440       .  S
Cd97        O102   2.443       .  S
Cd97         O98   2.509       .  S
Cd97        O101   2.502       .  S
Cd97         O99   2.440       .  S
Cd97        O228   2.486       .  S
Cd97        O230   2.515       .  S
Cd97        O240   2.447       .  S
Cd97        O239   2.431       .  S
C100        O104   1.262       .  A
O103       Cd233   2.441       .  S
O104       Cd233   2.453       .  S
C105        C106   1.207       .  T
C106        C107   1.414       .  S
C107        C108   1.207       .  T
C108        C367   1.438   1_455  S
C109        C110   1.209       .  T
C110        C111   1.417       .  S
C111        C112   1.209       .  T
C112        C368   1.440       .  S
C113        C114   1.344       .  D
C113        H115   1.088       .  S
C114        H116   1.087       .  S
C117        C118   1.343       .  D
C117        H119   1.087       .  S
C118        C329   1.474       .  S
C118        H120   1.088       .  S
C121        C313   1.482       .  S
C121        C122   1.345   1_554  D
C121        H123   1.087   1_554  S
C122        H124   1.088   1_556  S
C125        C126   1.344   1_556  D
C125        H127   1.087   1_556  S
C126        H128   1.088   1_554  S
C129        C130   1.207       .  T
C130        C131   1.414       .  S
C131        C132   1.207       .  T
C133        C134   1.210       .  T
C134        C135   1.419       .  S
C135        C136   1.210       .  T
O137        C140   1.268       .  A
O137       Cd142   2.497       .  S
C138        O147   1.261       .  A
C138        O143   1.266       .  A
C138        C179   1.472       .  S
O139        C145   1.266       .  A
O139       Cd142   2.510       .  S
C140        O148   1.263       .  A
C140        C272   1.439       .  S
C141        O146   1.267       .  A
C141        O144   1.264       .  A
C141        C265   1.436       .  S
Cd142       O149   2.456       .  S
Cd142       O148   2.443       .  S
Cd142       O147   2.456       .  S
Cd142       O143   2.522       .  S
Cd142       O146   2.488       .  S
Cd142       O144   2.440       .  S
C145        O149   1.262       .  A
C145        C197   1.470       .  S
O150        C153   1.267       .  A
C151        O160   1.260   1_455  A
C151        O428   1.266       .  A
C151        C192   1.471       .  S
O152        C158   1.265       .  A
O152       Cd291   2.511   1_455  S
C153        O161   1.264       .  A
C153        C268   1.436       .  S
C154        O159   1.268       .  A
C154        O157   1.263       .  A
C154        C269   1.439       .  S
Cd155       O288   2.526       .  S
Cd155       O298   2.446       .  S
Cd155       O432   2.450       .  S
Cd155       O156   2.539       .  S
Cd155       O159   2.496       .  S
Cd155       O157   2.443       .  S
O156        C423   1.266       .  A
C158        O162   1.263   1_455  A
C158        C184   1.471       .  S
O160       Cd427   2.457       .  S
O162       Cd291   2.468       .  S
O163        C166   1.268       .  A
O163       Cd168   2.498       .  S
C164        O173   1.265       .  A
C164        O169   1.268       .  A
C164        C261   1.482       .  S
O165        C171   1.270       .  A
O165       Cd168   2.500       .  S
C166        O174   1.264       .  A
C166        C229   1.466       .  S
C167        O172   1.269       .  A
C167        O170   1.262       .  A
C167        C258   1.474       .  S
Cd168       O175   2.435       .  S
Cd168       O174   2.428       .  S
Cd168       O173   2.419       .  S
Cd168       O169   2.518       .  S
Cd168       O172   2.522       .  S
Cd168       O170   2.428       .  S
C171        O175   1.267       .  A
C171        C223   1.472       .  S
O176        C179   1.269       .  A
O176       Cd181   2.511       .  S
C177        O186   1.263   1_655  A
C177        O182   1.268   1_655  A
C177        C529   1.484       .  S
O178        C184   1.269       .  A
O178       Cd181   2.500       .  S
C179        O187   1.265       .  A
C180        O185   1.268       .  A
C180        O183   1.261       .  A
C180        C262   1.473       .  S
Cd181       O188   2.446       .  S
Cd181       O187   2.441       .  S
Cd181       O186   2.440       .  S
Cd181       O182   2.529       .  S
Cd181       O185   2.533       .  S
Cd181       O183   2.423       .  S
C184        O188   1.265       .  A
O189        C192   1.269       .  A
O189       Cd194   2.496       .  S
C190        O199   1.262       .  A
C190        O195   1.266       .  A
C190        C249   1.480       .  S
O191        C197   1.267       .  A
O191       Cd194   2.500       .  S
C192        O200   1.267       .  A
C193        O198   1.266   1_655  A
C193        O196   1.263   1_655  A
C193        C526   1.482       .  S
Cd194       O201   2.456       .  S
Cd194       O200   2.442       .  S
Cd194       O199   2.434       .  S
Cd194       O195   2.522       .  S
Cd194       O198   2.519       .  S
Cd194       O196   2.445       .  S
C197        O201   1.265       .  A
O202        C205   1.269       .  A
O202       Cd207   2.502       .  S
C203        O212   1.265       .  A
C203        O208   1.268       .  A
C203        C253   1.482       .  S
O204        C210   1.268       .  A
O204       Cd207   2.500       .  S
C205        O213   1.265       .  A
C205        C216   1.471       .  S
C206        O211   1.269       .  A
C206        O209   1.262       .  A
C206        C250   1.473       .  S
Cd207       O214   2.438       .  S
Cd207       O213   2.444       .  S
Cd207       O212   2.440       .  S
Cd207       O208   2.507       .  S
Cd207       O211   2.523       .  S
Cd207       O209   2.416       .  S
C210        O214   1.265       .  A
C210        C236   1.469       .  S
O215        C218   1.267       .  A
O215       Cd220   2.494       .  S
C216        O225   1.261       .  A
C216        O221   1.266       .  A
O217        C223   1.266       .  A
O217       Cd220   2.531       .  S
C218        O226   1.263       .  A
C218        C245   1.436       .  S
C219        O224   1.267       .  A
C219        O222   1.262       .  A
C219        C241   1.440       .  S
Cd220       O227   2.455       .  S
Cd220       O226   2.441       .  S
Cd220       O225   2.457       .  S
Cd220       O221   2.521       .  S
Cd220       O224   2.508       .  S
Cd220       O222   2.445       .  S
C223        O227   1.260       .  A
O228        C231   1.269       .  A
C229        O238   1.261       .  A
C229        O234   1.266       .  A
O230        C236   1.266       .  A
C231        O239   1.265       .  A
C231        C516   1.438       .  S
C232        O237   1.268       .  A
C232        O235   1.263       .  A
C232        C520   1.439       .  S
Cd233       O238   2.445   1_545  S
Cd233       O234   2.509   1_545  S
Cd233       O237   2.492   1_545  S
Cd233       O235   2.448   1_545  S
C236        O240   1.261       .  A
C241        C242   1.208       .  T
C242        C243   1.416       .  S
C243        C244   1.208       .  T
C244        C503   1.438   1_455  S
C245        C246   1.206       .  T
C246        C247   1.412       .  S
C247        C248   1.206       .  T
C248        C504   1.435   1_455  S
C249        C250   1.344       .  D
C249        H251   1.087       .  S
C250        H252   1.088       .  S
C253        C254   1.344       .  D
C253        H255   1.087       .  S
C254        C465   1.475       .  S
C254        H256   1.088       .  S
C257        C449   1.480       .  S
C257        C258   1.344   1_554  D
C257        H259   1.087   1_554  S
C258        H260   1.088   1_556  S
C261        C262   1.345   1_556  D
C261        H263   1.087   1_556  S
C262        H264   1.088       .  S
C265        C266   1.206       .  T
C266        C267   1.412       .  S
C267        C268   1.206       .  T
C269        C270   1.208       .  T
C270        C271   1.416       .  S
C271        C272   1.208       .  T
O273        C276   1.268       .  A
O273       Cd278   2.498       .  S
C274        O283   1.262       .  A
C274        O279   1.266       .  A
C274        C315   1.471       .  S
O275        C281   1.266       .  A
O275       Cd278   2.535       .  S
C276        O284   1.264       .  A
C276        C408   1.440       .  S
C277        O282   1.268       .  A
C277        O280   1.263       .  A
C277        C401   1.440       .  S
Cd278       O285   2.432       .  S
Cd278       O284   2.449       .  S
Cd278       O283   2.454       .  S
Cd278       O279   2.520       .  S
Cd278       O282   2.502       .  S
Cd278       O280   2.441       .  S
C281        O285   1.260       .  A
C281        C333   1.469       .  S
O286        C289   1.268       .  A
O286       Cd427   2.498       .  S
C287        O296   1.261       .  A
C287        C328   1.466       .  S
O288        C294   1.266       .  A
C289        O297   1.263       .  A
C289        C404   1.439       .  S
C290        O295   1.266       .  A
C290        O293   1.263       .  A
C290        C405   1.440       .  S
Cd291       O422   2.498       .  S
Cd291       O433   2.448       .  S
Cd291       O292   2.533   1_565  S
Cd291       O295   2.496   1_565  S
Cd291       O293   2.457   1_565  S
C294        O298   1.261       .  A
C294        C320   1.469       .  S
O297       Cd427   2.439       .  S
O299        C302   1.270       .  A
O299       Cd304   2.508       .  S
C300        O309   1.264       .  A
C300        O305   1.268       .  A
C300        C397   1.479       .  S
O301        C307   1.268       .  A
O301       Cd304   2.505       .  S
C302        O310   1.266       .  A
C302        C365   1.471       .  S
C303        O308   1.269       .  A
C303        O306   1.263       .  A
C303        C394   1.473   1_556  S
Cd304       O311   2.461       .  S
Cd304       O310   2.423       .  S
Cd304       O309   2.422       .  S
Cd304       O305   2.510       .  S
Cd304       O308   2.507       .  S
Cd304       O306   2.427       .  S
C307        O311   1.265       .  A
C307        C359   1.473       .  S
O312        C315   1.270       .  A
O312       Cd317   2.509       .  S
C313        O322   1.263       .  A
C313        O318   1.268       .  A
O314        C320   1.269       .  A
O314       Cd317   2.500       .  S
C315        O323   1.265       .  A
C316        O321   1.268       .  A
C316        O319   1.261       .  A
C316        C398   1.471       .  S
Cd317       O324   2.429       .  S
Cd317       O323   2.437       .  S
Cd317       O322   2.434       .  S
Cd317       O318   2.526       .  S
Cd317       O321   2.508       .  S
Cd317       O319   2.423       .  S
C320        O324   1.265       .  A
O325        C328   1.271       .  A
O325       Cd330   2.495       .  S
C326        O335   1.262       .  A
C326        O331   1.271       .  A
C326        C385   1.474       .  S
O327        C333   1.271       .  A
O327       Cd330   2.511       .  S
C328        O336   1.266       .  A
C329        O334   1.272       .  A
C329        O332   1.263       .  A
Cd330       O337   2.413       .  S
Cd330       O336   2.416       .  S
Cd330       O335   2.412       .  S
Cd330       O331   2.521       .  S
Cd330       O334   2.515       .  S
Cd330       O332   2.416       .  S
C333        O337   1.265       .  A
O338        C341   1.269       .  A
O338       Cd343   2.510       .  S
C339        O348   1.264       .  A
C339        O344   1.262       .  A
C339        C389   1.478       .  S
O340        C346   1.267       .  A
O340       Cd343   2.486       .  S
C341        O349   1.263       .  A
C341        C352   1.471       .  S
C342        O347   1.265       .  A
C342        O345   1.263       .  A
C342        C386   1.481       .  S
Cd343       O350   2.436       .  S
Cd343       O349   2.441       .  S
Cd343       O348   2.505       .  S
Cd343       O344   2.474       .  S
Cd343       O347   2.521       .  S
Cd343       O345   2.433       .  S
C346        O350   1.262       .  A
C346        C372   1.463       .  S
O351        C354   1.268       .  A
O351       Cd356   2.495       .  S
C352        O361   1.262       .  A
C352        O357   1.266       .  A
O353        C359   1.265       .  A
O353       Cd356   2.509       .  S
C354        O362   1.264       .  A
C354        C381   1.440       .  S
C355        O360   1.267       .  A
C355        O358   1.264       .  A
C355        C377   1.438       .  S
Cd356       O363   2.473       .  S
Cd356       O362   2.447       .  S
Cd356       O361   2.457       .  S
Cd356       O357   2.520       .  S
Cd356       O360   2.486       .  S
Cd356       O358   2.451       .  S
C359        O363   1.263       .  A
O364        C367   1.265       .  A
O364       Cd505   2.491       .  S
C365        O374   1.261       .  A
C365        O370   1.267       .  A
O366        C372   1.264       .  A
O366       Cd505   2.480       .  S
C367        O375   1.262       .  A
C368        O373   1.267   1_455  A
C368        O371   1.263       .  A
Cd369       O500   2.507       .  S
Cd369       O502   2.518       .  S
Cd369       O512   2.431       .  S
Cd369       O511   2.426   1_655  S
Cd369       O374   2.441       .  S
Cd369       O370   2.533       .  S
Cd369       O373   2.501       .  S
Cd369       O371   2.449   1_655  S
C372        O376   1.264       .  A
O375       Cd505   2.463       .  S
O376       Cd505   2.449       .  S
C377        C378   1.207       .  T
C378        C379   1.415       .  S
C379        C380   1.207       .  T
C381        C382   1.209       .  T
C382        C383   1.417       .  S
C383        C384   1.209       .  T
C385        C386   1.344       .  D
C385        H387   1.088       .  S
C386        H388   1.087       .  S
C389        C390   1.344       .  D
C389        H391   1.087       .  S
C390        H392   1.086       .  S
C393        C394   1.344       .  D
C393        H395   1.087   1_554  S
C394        H396   1.088       .  S
C397        C398   1.344   1_556  D
C397        H399   1.087   1_556  S
C398        H400   1.088   1_554  S
C401        C402   1.208       .  T
C402        C403   1.416       .  S
C403        C404   1.208       .  T
C405        C406   1.209       .  T
C406        C407   1.417       .  S
C407        C408   1.209       .  T
O409        C412   1.268       .  A
O409       Cd414   2.496       .  S
C410        O419   1.261       .  A
C410        O415   1.266       .  A
C410        C451   1.470       .  S
O411        C417   1.266       .  A
O411       Cd414   2.534       .  S
C412        O420   1.263       .  A
C412        C544   1.439       .  S
C413        O418   1.268       .  A
C413        O416   1.263       .  A
C413        C537   1.441       .  S
Cd414       O421   2.454       .  S
Cd414       O420   2.443       .  S
Cd414       O419   2.450       .  S
Cd414       O415   2.521       .  S
Cd414       O418   2.503       .  S
Cd414       O416   2.450       .  S
C417        O421   1.260       .  A
C417        C469   1.473       .  S
O422        C425   1.269       .  A
C423        O432   1.260       .  A
C423        C464   1.473       .  S
O424        C430   1.266       .  A
C425        O433   1.264       .  A
C425        C540   1.441       .  S
C426        O431   1.268       .  A
C426        O429   1.263       .  A
C426        C541   1.440       .  S
Cd427       O428   2.527   1_655  S
Cd427       O431   2.499       .  S
Cd427       O429   2.446       .  S
C430        O434   1.260       .  A
C430        C456   1.471       .  S
O435        C438   1.269       .  A
O435       Cd440   2.509       .  S
C436        O445   1.263       .  A
C436        O441   1.267       .  A
C436        C533   1.483       .  S
O437        C443   1.269       .  A
O437       Cd440   2.502       .  S
C438        O446   1.265       .  A
C438        C501   1.470       .  S
C439        O444   1.268       .  A
C439        O442   1.262       .  A
C439        C530   1.477       .  S
Cd440       O447   2.435       .  S
Cd440       O446   2.440       .  S
Cd440       O445   2.432       .  S
Cd440       O441   2.530       .  S
Cd440       O444   2.529       .  S
Cd440       O442   2.439       .  S
C443        O447   1.265       .  A
C443        C495   1.470       .  S
O448        C451   1.269       .  A
O448       Cd453   2.502       .  S
C449        O458   1.263       .  A
C449        O454   1.267       .  A
O450        C456   1.269       .  A
O450       Cd453   2.507       .  S
C451        O459   1.266       .  A
C452        O457   1.268       .  A
C452        O455   1.261       .  A
C452        C534   1.474       .  S
Cd453       O460   2.440       .  S
Cd453       O459   2.434       .  S
Cd453       O458   2.431       .  S
Cd453       O454   2.517       .  S
Cd453       O457   2.528       .  S
Cd453       O455   2.428       .  S
C456        O460   1.265       .  A
O461        C464   1.271       .  A
O461       Cd466   2.516       .  S
C462        O471   1.262       .  A
C462        O467   1.270       .  A
C462        C521   1.474       .  S
O463        C469   1.271       .  A
O463       Cd466   2.514       .  S
C464        O472   1.266       .  A
C465        O470   1.271       .  A
C465        O468   1.262       .  A
Cd466       O473   2.438       .  S
Cd466       O472   2.428       .  S
Cd466       O471   2.426       .  S
Cd466       O467   2.522       .  S
Cd466       O470   2.523       .  S
Cd466       O468   2.422       .  S
C469        O473   1.266       .  A
O474        C477   1.268       .  A
O474       Cd479   2.512       .  S
C475        O484   1.262       .  A
C475        O480   1.269       .  A
C475        C525   1.475       .  S
O476        C482   1.269       .  A
O476       Cd479   2.489       .  S
C477        O485   1.264       .  A
C477        C488   1.470       .  S
C478        O483   1.267       .  A
C478        O481   1.265       .  A
C478        C522   1.480       .  S
Cd479       O486   2.417       .  S
Cd479       O485   2.440       .  S
Cd479       O484   2.427       .  S
Cd479       O480   2.522       .  S
Cd479       O483   2.507       .  S
Cd479       O481   2.436       .  S
C482        O486   1.266       .  A
C482        C508   1.465       .  S
O487        C490   1.268       .  A
O487       Cd492   2.492       .  S
C488        O497   1.263       .  A
C488        O493   1.267       .  A
O489        C495   1.266       .  A
O489       Cd492   2.517       .  S
C490        O498   1.264       .  A
C490        C517   1.438       .  S
C491        O496   1.268       .  A
C491        O494   1.263       .  A
C491        C513   1.440       .  S
Cd492       O499   2.454       .  S
Cd492       O498   2.440       .  S
Cd492       O497   2.446       .  S
Cd492       O493   2.512       .  S
Cd492       O496   2.496       .  S
Cd492       O494   2.447       .  S
C495        O499   1.262       .  A
O500        C503   1.269       .  A
C501        O510   1.263       .  A
C501        O506   1.265       .  A
O502        C508   1.266       .  A
C503        O511   1.261   1_655  A
C504        O509   1.266       .  A
C504        O507   1.264   1_655  A
Cd505       O510   2.454   1_545  S
Cd505       O506   2.511   1_545  S
Cd505       O509   2.479   1_545  S
Cd505       O507   2.439   1_645  S
C508        O512   1.259       .  A
C513        C514   1.208       .  T
C514        C515   1.416       .  S
C515        C516   1.208       .  T
C517        C518   1.208       .  T
C518        C519   1.415       .  S
C519        C520   1.208       .  T
C521        C522   1.343       .  D
C521        H523   1.088       .  S
C522        H524   1.087       .  S
C525        C526   1.344       .  D
C525        H527   1.088       .  S
C526        H528   1.087       .  S
C529        C530   1.346   1_554  D
C529        H531   1.087       .  S
C530        H532   1.088   1_556  S
C533        C534   1.345   1_556  D
C533        H535   1.087       .  S
C534        H536   1.088   1_554  S
C537        C538   1.209       .  T
C538        C539   1.418       .  S
C539        C540   1.209       .  T
C541        C542   1.208       .  T
C542        C543   1.416       .  S
C543        C544   1.208       .  T
