geometry optimzed in LAMMPS
_audit_creation_date              2020-12-01 
_audit_creation_method            'lammps2cif' 
_symmetry_space_group_name_H-M    'P1' 
_symmetry_Int_Tables_number       1 
_symmetry_cell_setting            triclinic 
loop_ 
_symmetry_equiv_pos_as_xyz 
  x,y,z 
_cell_length_a                    44.2598474 
_cell_length_b                    44.423795623335224 
_cell_length_c                    44.402351785466166 
_cell_angle_alpha                 89.94045793525952 
_cell_angle_beta                  90.09786124305481 
_cell_angle_gamma                 89.89654794229752 
loop_ 
_atom_site_label 
_atom_site_type_symbol 
_atom_site_fract_x 
_atom_site_fract_y 
_atom_site_fract_z 
_atom_site_charge 
C1          C  0.16499711  0.82585339  0.53042839     0.03100
C2          C  0.14632978  0.85146205  0.52965076    -0.13000
C3          C  0.13533355  0.86275944  0.50194125     0.00600
C4          C  0.14402632  0.84836557  0.47488451    -0.11500
C5          C  0.16262477  0.82266751  0.47567521     0.03100
C6          C  0.17306448  0.81196581  0.50338912    -0.11000
H7          H  0.13987920  0.86209440  0.55062758     0.08700
H8          H  0.13578437  0.85655279  0.45339723     0.06300
H9          H  0.18818012  0.79272449  0.50382339     0.06100
C10         C  0.98549926  0.03811227  0.47348931     0.03100
C11         C  0.97263058  0.04732222  0.50073775    -0.13000
C12         C  0.98012657  0.03329914  0.52797542     0.00600
C13         C  0.00155338  0.00988161  0.52796867    -0.11500
C14         C  0.01463707  0.99988394  0.50073545     0.03100
C15         C  0.00619347  0.01404983  0.47346819    -0.11000
H16         H  0.95635295  0.06559285  0.50070475     0.08700
H17         H  0.00746078  0.99906193  0.54905138     0.06300
H18         H  0.01599026  0.00676634  0.45234788     0.06100
C19         C  0.96802064  0.84269122  0.47540462     0.03100
C20         C  0.99231455  0.86306965  0.47503530    -0.13000
C21         C  0.00690474  0.87144683  0.50212190     0.00600
C22         C  0.99723434  0.85843602  0.52953253    -0.11500
C23         C  0.97364699  0.83726087  0.52985585     0.03100
C24         C  0.95897101  0.83019964  0.50284535    -0.11000
H25         H  0.99951640  0.87261745  0.45377397     0.08700
H26         H  0.00854803  0.86406906  0.55042560     0.06300
H27         H  0.94055397  0.81414609  0.50309110     0.06100
C28         C  0.54506898  0.80980946  0.09432751     0.03100
C29         C  0.54660158  0.83303773  0.07288071    -0.13000
C30         C  0.57477676  0.84506551  0.06402666     0.00600
C31         C  0.60144342  0.83395195  0.07765862    -0.11500
C32         C  0.59992515  0.81136001  0.09983269     0.03100
C33         C  0.57180149  0.79905508  0.10726590    -0.11000
H34         H  0.52585925  0.84160231  0.06309095     0.08700
H35         H  0.62316842  0.84351059  0.07185111     0.06300
H36         H  0.57061071  0.78150771  0.12420894     0.06100
C37         C  0.98321064  0.45174575  0.09602973     0.03100
C38         C  0.96867890  0.42499671  0.10392806    -0.13000
C39         C  0.97587934  0.39769180  0.08999121     0.00600
C40         C  0.99894441  0.39703748  0.06814224    -0.11500
C41         C  0.01373170  0.42392948  0.05947703     0.03100
C42         C  0.00536756  0.45124728  0.07344726    -0.11000
H43         H  0.95114835  0.42549000  0.12095954     0.08700
H44         H  0.00470350  0.37590382  0.05742785     0.06300
H45         H  0.01640795  0.47207905  0.06719833     0.06100
C46         C  0.97415812  0.39855431  0.90328664     0.03100
C47         C  0.99799869  0.39834525  0.92420893    -0.13000
C48         C  0.01353494  0.42515869  0.93127875     0.00600
C49         C  0.00537323  0.45205951  0.91646813    -0.11500
C50         C  0.98233117  0.45214715  0.89467012     0.03100
C51         C  0.96681932  0.42541708  0.88846612    -0.11000
H52         H  0.00369405  0.37754625  0.93566566     0.08700
H53         H  0.01715904  0.47280882  0.92152647     0.06300
H54         H  0.94859070  0.42557676  0.87211664     0.06100
C55         C  0.60759979  0.01708702  0.91190143     0.03100
C56         C  0.60697819  0.99172729  0.93085366    -0.13000
C57         C  0.57948301  0.98191777  0.94364315     0.00600
C58         C  0.55248905  0.99741907  0.93633331    -0.11500
C59         C  0.55313769  0.02284873  0.91748022     0.03100
C60         C  0.58070170  0.03235456  0.90553181    -0.11000
H61         H  0.62789234  0.98009292  0.93600582     0.08700
H62         H  0.53112051  0.99019366  0.94572573     0.06300
H63         H  0.58114037  0.05155968  0.89042895     0.06100
C64         C  0.17960527  0.39915725  0.89931423     0.03100
C65         C  0.18593791  0.42588504  0.88402288    -0.13000
C66         C  0.17095521  0.45270579  0.89104408     0.00600
C67         C  0.14951880  0.45281475  0.91446489    -0.11500
C68         C  0.14230486  0.42584065  0.92986477     0.03100
C69         C  0.15733053  0.39898385  0.92176910    -0.11000
H70         H  0.20300251  0.42582077  0.86651424     0.08700
H71         H  0.13810383  0.47362816  0.92016350     0.06300
H72         H  0.15237920  0.37813474  0.93342252     0.06100
C73         C  0.55265605  0.82578655  0.89436468     0.03100
C74         C  0.58004897  0.81258832  0.88610671    -0.13000
C75         C  0.60676415  0.81861406  0.90173912     0.00600
C76         C  0.60614987  0.83920937  0.92576468    -0.11500
C77         C  0.57865720  0.85278756  0.93472768     0.03100
C78         C  0.55179283  0.84546354  0.91910656    -0.11000
H79         H  0.58052171  0.79729589  0.86708804     0.08700
H80         H  0.62690977  0.84423886  0.93767905     0.06300
H81         H  0.53047847  0.85556182  0.92557948     0.06100
C82         C  0.10415566  0.31387546  0.40504110     0.03100
C83         C  0.10403446  0.33777598  0.42581936    -0.13000
C84         C  0.07655494  0.34863241  0.43793275     0.00600
C85         C  0.04907772  0.33577568  0.42810357    -0.11500
C86         C  0.04915218  0.31180687  0.40747213     0.03100
C87         C  0.07664569  0.30119216  0.39618052    -0.11000
H88         H  0.12533901  0.34738046  0.43299463     0.08700
H89         H  0.02775331  0.34374314  0.43703343     0.06300
H90         H  0.07653816  0.28311976  0.37977705     0.06100
C91         C  0.31364249  0.19582508  0.23191940     0.02300
C92         C  0.30182504  0.18158035  0.25781127     0.02300
C93         C  0.31570577  0.15515871  0.26907006     0.02300
C94         C  0.34266228  0.14441662  0.25583973     0.02300
C95         C  0.35381763  0.15791578  0.22923000     0.02300
C96         C  0.34001618  0.18440556  0.21796535     0.02300
C97         C  0.48303328  0.89180465  0.39775129     0.03100
C98         C  0.46883270  0.91807307  0.38793103    -0.13000
C99         C  0.47623819  0.94610650  0.40005032     0.00600
C100        C  0.49905480  0.94794787  0.42210378    -0.11500
C101        C  0.51342150  0.92150650  0.43277738     0.03100
C102        C  0.50492655  0.89337169  0.42055213    -0.11000
H103        H  0.45173190  0.91663556  0.37045291     0.08700
H104        H  0.50506915  0.96971437  0.43127900     0.06300
H105        H  0.51569423  0.87281236  0.42819568     0.06100
C106        C  0.29588731  0.65726137  0.26993741     0.02300
C107        C  0.30769756  0.68428790  0.28168813     0.02300
C108        C  0.33493032  0.69597530  0.27006684     0.02300
C109        C  0.34835116  0.68281995  0.24439904     0.02300
C110        C  0.33625336  0.65597598  0.23227158     0.02300
C111        C  0.30963123  0.64360121  0.24468181     0.02300
C112        C  0.83869707  0.19902870  0.23036439     0.02300
C113        C  0.85134135  0.18663095  0.25691339     0.02300
C114        C  0.83954636  0.15951399  0.26887342     0.02300
C115        C  0.81340754  0.14659277  0.25587939     0.02300
C116        C  0.80034375  0.15946257  0.22980774     0.02300
C117        C  0.81201017  0.18665263  0.21816908     0.02300
C118        C  0.68061890  0.95217243  0.40291699     0.03100
C119        C  0.65607019  0.95175354  0.42297265    -0.13000
C120        C  0.64397023  0.92421475  0.43331809     0.00600
C121        C  0.65645633  0.89695671  0.42266169    -0.11500
C122        C  0.68103873  0.89720421  0.40259415     0.03100
C123        C  0.69273086  0.92482972  0.39294001    -0.11000
H124        H  0.64684926  0.97288608  0.43095689     0.08700
H125        H  0.64749807  0.87560974  0.43032949     0.06300
H126        H  0.71096448  0.92502006  0.37667306     0.06100
C127        C  0.81133441  0.68908367  0.23684611     0.02300
C128        C  0.82416111  0.70228097  0.26283249     0.02300
C129        C  0.84998482  0.68903707  0.27645812     0.02300
C130        C  0.86129700  0.66134711  0.26534646     0.02300
C131        C  0.84821942  0.64815760  0.23939867     0.02300
C132        C  0.82264540  0.66149152  0.22579766     0.02300
C133        C  0.04696032  0.50641932  0.40156264     0.03100
C134        C  0.04757933  0.48567779  0.42551307    -0.13000
C135        C  0.07532845  0.47646518  0.43834366     0.00600
C136        C  0.10245672  0.48873035  0.42717121    -0.11500
C137        C  0.10198383  0.50945390  0.40328418     0.03100
C138        C  0.07425464  0.51812968  0.39083422    -0.11000
H139        H  0.02653497  0.47640455  0.43375515     0.08700
H140        H  0.12395760  0.48190069  0.43669471     0.06300
H141        H  0.07391099  0.53494228  0.37312337     0.06100
C142        C  0.47544610  0.33512133  0.97268923     0.03100
C143        C  0.49746976  0.35793283  0.97265468    -0.13000
C144        C  0.50746415  0.37081449  0.00002278     0.00600
C145        C  0.49446489  0.36090559  0.02734773    -0.11500
C146        C  0.47177538  0.33875975  0.02741983     0.03100
C147        C  0.46268643  0.32606667  0.00003819    -0.11000
H148        H  0.50739104  0.36490383  0.95148575     0.08700
H149        H  0.50180417  0.37049865  0.04854480     0.06300
H150        H  0.44572933  0.30848090  0.00000208     0.06100
C151        C  0.35395434  0.15434107  0.77348375     0.02300
C152        C  0.34137474  0.18149245  0.78408315     0.02300
C153        C  0.31605605  0.19418589  0.76933483     0.02300
C154        C  0.30523218  0.18132935  0.74217556     0.02300
C155        C  0.31788861  0.15399600  0.73159284     0.02300
C156        C  0.34310917  0.14134943  0.74658571     0.02300
C157        C  0.48797247  0.90006306  0.60297437     0.03100
C158        C  0.47957437  0.92782126  0.61513557    -0.13000
C159        C  0.48901829  0.95485412  0.60209450     0.00600
C160        C  0.50754669  0.95403186  0.57641946    -0.11500
C161        C  0.51694500  0.92620948  0.56409857     0.03100
C162        C  0.50654337  0.89922042  0.57734293    -0.11000
H163        H  0.46477684  0.92835615  0.63458148     0.08700
H164        H  0.51511561  0.97501388  0.56655704     0.06300
H165        H  0.51329584  0.87763520  0.56820781     0.06100
C166        C  0.31487290  0.64921335  0.75812277     0.02300
C167        C  0.30247935  0.66046278  0.73094585     0.02300
C168        C  0.31542623  0.68598421  0.71709957     0.02300
C169        C  0.34146897  0.69948695  0.72937948     0.02300
C170        C  0.35361833  0.68854892  0.75666376     0.02300
C171        C  0.34157583  0.66222302  0.76992924     0.02300
C172        C  0.05215499  0.50809074  0.60489153     0.03100
C173        C  0.05145294  0.48595985  0.58222573    -0.13000
C174        C  0.07845176  0.47646255  0.56806299     0.00600
C175        C  0.10607020  0.49003553  0.57661629    -0.11500
C176        C  0.10666975  0.51291725  0.59850677     0.03100
C177        C  0.07972487  0.52139392  0.61252823    -0.11000
H178        H  0.03006234  0.47583739  0.57610426     0.08700
H179        H  0.12697609  0.48332189  0.56587376     0.06300
H180        H  0.08020477  0.53871515  0.62971426     0.06100
C181        C  0.10577698  0.30533585  0.59133771     0.03100
C182        C  0.07817265  0.29354695  0.60112097    -0.13000
C183        C  0.05079092  0.30719165  0.59328459     0.00600
C184        C  0.05089889  0.33289309  0.57488275    -0.11500
C185        C  0.07838334  0.34483291  0.56406148     0.03100
C186        C  0.10585512  0.33114597  0.57292510    -0.11000
H187        H  0.07799421  0.27396641  0.61573356     0.08700
H188        H  0.02956208  0.34312229  0.56858407     0.06300
H189        H  0.12719142  0.34002960  0.56500439     0.06100
C190        C  0.83470490  0.16257526  0.72818208     0.02300
C191        C  0.80752781  0.15051814  0.73974405     0.02300
C192        C  0.79568373  0.16168663  0.76710775     0.02300
C193        C  0.80943036  0.18655895  0.78151711     0.02300
C194        C  0.83659699  0.19861235  0.76993238     0.02300
C195        C  0.84833230  0.18756519  0.74246557     0.02300
C196        C  0.67328763  0.90034560  0.59947898     0.03100
C197        C  0.65155041  0.89971630  0.57634621    -0.13000
C198        C  0.64311399  0.92651062  0.56122225     0.00600
C199        C  0.65711004  0.95385681  0.56935602    -0.11500
C200        C  0.67962959  0.95431437  0.59164458     0.03100
C201        C  0.68738013  0.92763126  0.60647676    -0.11000
H202        H  0.64077351  0.87858129  0.57070217     0.08700
H203        H  0.65101747  0.97461638  0.55803117     0.06300
H204        H  0.70464664  0.92818097  0.62382493     0.06100
C205        C  0.83680232  0.68312725  0.71559759     0.02300
C206        C  0.85064456  0.65671140  0.72685573     0.02300
C207        C  0.83877941  0.64256005  0.75288485     0.02300
C208        C  0.81193386  0.65355085  0.76631673     0.02300
C209        C  0.79806612  0.67985753  0.75467441     0.02300
C210        C  0.80969204  0.69372350  0.72852477     0.02300
C211        C  0.48685173  0.54049675  0.02766064     0.03100
C212        C  0.50457536  0.51420988  0.02768889    -0.13000
C213        C  0.51549321  0.50207094  0.00037988     0.00600
C214        C  0.50746798  0.51613269  0.97296796    -0.11500
C215        C  0.48973604  0.54242367  0.97283868     0.03100
C216        C  0.47973666  0.55433977  0.00023739    -0.11000
H217        H  0.51032091  0.50368543  0.04896571     0.08700
H218        H  0.51552419  0.50710771  0.95179072     0.06300
H219        H  0.46538818  0.57415111  0.00019559     0.06100
C220        C  0.66714102  0.32812206  0.97493768     0.03100
C221        C  0.64758468  0.35314093  0.97477425    -0.13000
C222        C  0.63554314  0.36448128  0.00199691     0.00600
C223        C  0.64396370  0.35072113  0.02950788    -0.11500
C224        C  0.66339933  0.32569752  0.02966054     0.03100
C225        C  0.67496693  0.31493487  0.00247658    -0.11000
H226        H  0.64123946  0.36324013  0.95346377     0.08700
H227        H  0.63489767  0.35886691  0.05063752     0.06300
H228        H  0.69052557  0.29604465  0.00287045     0.06100
C229        C  0.67448038  0.52840187  0.03115722     0.03100
C230        C  0.68466050  0.54105787  0.00416188    -0.13000
C231        C  0.67350493  0.53151070  0.97621650     0.00600
C232        C  0.65199991  0.50817945  0.97538675    -0.11500
C233        C  0.64135107  0.49497788  0.00236509     0.03100
C234        C  0.65301544  0.50516668  0.03017267    -0.11000
H235        H  0.70183083  0.55841608  0.00493872     0.08700
H236        H  0.64304027  0.50093385  0.95387172     0.06300
H237        H  0.64496382  0.49555515  0.05110019     0.06100
C238        C  0.60434037  0.00076475  0.11073945     0.03100
C239        C  0.60457886  0.98207371  0.08521084    -0.13000
C240        C  0.57714812  0.97187176  0.07243600     0.00600
C241        C  0.54951876  0.98155966  0.08507237    -0.11500
C242        C  0.54930743  0.00023813  0.11057368     0.03100
C243        C  0.57670407  0.00946694  0.12317088    -0.11000
H244        H  0.62602772  0.97522667  0.07568062     0.08700
H245        H  0.52823424  0.97433344  0.07543519     0.06300
H246        H  0.57650814  0.02458777  0.14233715     0.06100
C247        C  0.17221365  0.39465002  0.09759237     0.03100
C248        C  0.18262862  0.42186097  0.10957937    -0.13000
C249        C  0.17280445  0.44961147  0.09828931     0.00600
C250        C  0.15260727  0.45021150  0.07382326    -0.11500
C251        C  0.14178729  0.42315705  0.06114939     0.03100
C252        C  0.15192092  0.39540472  0.07314872    -0.11000
H253        H  0.19908211  0.42150109  0.12768659     0.08700
H254        H  0.14486114  0.47169706  0.06517537     0.06300
H255        H  0.14358046  0.37442791  0.06394625     0.06100
C256        C  0.17154490  0.03116532  0.47187585     0.03100
C257        C  0.15146170  0.00671494  0.47233832    -0.13000
C258        C  0.14166201  0.99440337  0.50002530     0.00600
C259        C  0.15327452  0.00632605  0.52720577    -0.11500
C260        C  0.17342672  0.03074342  0.52667194     0.03100
C261        C  0.18226706  0.04287645  0.49904411    -0.11000
H262        H  0.14284531  0.99800119  0.45123185     0.08700
H263        H  0.14607783  0.99729836  0.54869440     0.06300
H264        H  0.19803865  0.06154156  0.49869022     0.06100
O265        O  0.04674379  0.96365482  0.47647721    -0.71800
O266        O  0.10386753  0.89925191  0.47698419    -0.72000
O267        O  0.04303095  0.90309125  0.47718090    -0.71800
O268        O  0.10738255  0.95998996  0.47626357    -0.71800
O269        O  0.10744607  0.96082154  0.52511811    -0.71800
O270        O  0.04364454  0.90323688  0.52603943    -0.71800
O271        O  0.10443878  0.90013228  0.52583454    -0.71800
O272        O  0.04669698  0.96381490  0.52534107    -0.72000
V273        V  0.07530164  0.93147662  0.47768150     1.35200
V274        V  0.07558416  0.93197239  0.52462532     1.35200
C275        C  0.03692382  0.97474975  0.50083895     0.77500
C276        C  0.11382614  0.88856387  0.50152901     0.77500
C277        C  0.03225132  0.89346168  0.50176597     0.77400
C278        C  0.11808381  0.97054937  0.50050957     0.77400
O279        O  0.55289565  0.94124462  0.03504577    -0.71800
O280        O  0.55353160  0.88518692  0.97006180    -0.72000
O281        O  0.55201776  0.88089307  0.03059484    -0.71800
O282        O  0.55415372  0.94569173  0.97457174    -0.71800
O283        O  0.60316175  0.94446617  0.97500866    -0.71800
O284        O  0.60100263  0.88050303  0.03251460    -0.71800
O285        O  0.60250787  0.88382130  0.97189881    -0.71800
O286        O  0.60191558  0.94100316  0.03568963    -0.72000
V287        V  0.55411773  0.91323164  0.00256848     1.35200
V288        V  0.60120092  0.91247048  0.00372029     1.35200
C289        C  0.57732335  0.95064459  0.04655571     0.77500
C290        C  0.57817627  0.87477959  0.95996764     0.77500
C291        C  0.57604824  0.86978113  0.04140874     0.77400
C292        C  0.57895477  0.95620943  0.96516729     0.77400
O293        O  0.10930972  0.40086818  0.96472271    -0.71800
O294        O  0.04776882  0.39963513  0.02487426    -0.72000
O295        O  0.04845581  0.40059118  0.96432377    -0.71800
O296        O  0.10866117  0.39963512  0.02551869    -0.71800
O297        O  0.10918773  0.44846699  0.02581981    -0.71800
O298        O  0.04786716  0.44943331  0.96532308    -0.71800
O299        O  0.04836563  0.44845177  0.02604822    -0.71800
O300        O  0.10858412  0.44970656  0.96483737    -0.72000
V301        V  0.07860713  0.40114865  0.99484837     1.35200
V302        V  0.07853120  0.44807065  0.99551150     1.35200
C303        C  0.11915715  0.42548460  0.95416530     0.77500
C304        C  0.03758618  0.42392802  0.03582600     0.77500
C305        C  0.03767426  0.42509957  0.95451522     0.77400
C306        C  0.11909030  0.42381688  0.03635769     0.77400
O307        O  0.60292093  0.40043683  0.02587214    -0.71800
O308        O  0.54586060  0.46471478  0.02510075    -0.72000
O309        O  0.54217615  0.40408815  0.02486845    -0.71800
O310        O  0.60646285  0.46106158  0.02596713    -0.71800
O311        O  0.60665097  0.46187193  0.97711566    -0.71800
O312        O  0.54339516  0.40357027  0.97603276    -0.71800
O313        O  0.54597382  0.46441850  0.97623806    -0.71800
O314        O  0.60428257  0.40111380  0.97703658    -0.72000
V315        V  0.57436113  0.43255529  0.02448534     1.35200
V316        V  0.57504092  0.43270639  0.97754885     1.35200
C317        C  0.61345104  0.38979977  0.00161409     0.77500
C318        C  0.53639693  0.47581028  0.00056628     0.77500
C319        C  0.53193588  0.39384245  0.00028338     0.77400
C320        C  0.61729051  0.47156252  0.00175341     0.77400
O321        O  0.05342569  0.38117712  0.53280479    -0.71800
O322        O  0.05186267  0.44334028  0.47384747    -0.72000
O323        O  0.05229337  0.38281249  0.47226147    -0.71800
O324        O  0.05321141  0.44198664  0.53462346    -0.71800
O325        O  0.10219118  0.44266807  0.53309818    -0.71800
O326        O  0.10130939  0.38253714  0.47194635    -0.71800
O327        O  0.10086630  0.44306361  0.47241736    -0.71800
O328        O  0.10244075  0.38171369  0.53252781    -0.72000
V329        V  0.05365894  0.41237320  0.50342194     1.35200
V330        V  0.10074622  0.41253170  0.50257410     1.35200
C331        C  0.07812948  0.37047579  0.54246851     0.77500
C332        C  0.07605881  0.45348099  0.46264906     0.77500
C333        C  0.07669400  0.37241760  0.46155607     0.77400
C334        C  0.07789811  0.45269947  0.54433026     0.77400
O335        O  0.54870930  0.90080126  0.52826950    -0.71800
O336        O  0.60913640  0.89981115  0.46696686    -0.72000
O337        O  0.60933889  0.90121831  0.52762931    -0.71800
O338        O  0.54822876  0.89903078  0.46744866    -0.71800
O339        O  0.54717642  0.94784630  0.46614719    -0.71800
O340        O  0.60907078  0.95004445  0.52613024    -0.71800
O341        O  0.60817328  0.94862192  0.46555384    -0.71800
O342        O  0.54835818  0.94962404  0.52697074    -0.72000
V343        V  0.57879096  0.90117425  0.49749043     1.35200
V344        V  0.57816615  0.94808252  0.49617568     1.35200
C345        C  0.53866369  0.92546630  0.53854188     0.77500
C346        C  0.61926269  0.92414581  0.45604122     0.77500
C347        C  0.61959488  0.92593834  0.53730675     0.77400
C348        C  0.53721382  0.92294134  0.45644930     0.77400
C349        C  0.79662049  0.63535867  0.79010394    -0.03200
C350        C  0.78666336  0.60613525  0.78327148    -0.05800
C351        C  0.77122501  0.58898164  0.80470051    -0.20900
C352        C  0.76480898  0.60088454  0.83323018     0.24900
C353        C  0.77547697  0.62991927  0.84036895    -0.18400
C354        C  0.79137728  0.64690234  0.81904168    -0.08400
C355        C  0.74766581  0.58218589  0.85521726    -0.18700
C356        C  0.72954040  0.59434069  0.87633972    -0.23500
C357        C  0.71307333  0.57703500  0.89999632     0.26900
C358        C  0.70162067  0.59318980  0.92458749    -0.20200
C359        C  0.68759185  0.57840827  0.94847583    -0.09900
C360        C  0.68451029  0.54692412  0.94852605    -0.10400
C361        C  0.69447740  0.53067895  0.92326118    -0.03400
C362        C  0.70870428  0.54556255  0.89918760    -0.18500
H363        H  0.79056668  0.59672593  0.76111912     0.10600
H364        H  0.76368054  0.56657739  0.79874924     0.10700
H365        H  0.77199135  0.63941418  0.86252095     0.10300
H366        H  0.79943969  0.66909608  0.82504848     0.11500
H367        H  0.74978801  0.55795023  0.85335360     0.11500
H368        H  0.72722274  0.61866774  0.87704419     0.13500
H369        H  0.70423286  0.61740643  0.92575252     0.10000
H370        H  0.67967512  0.59164073  0.96736989     0.12100
H371        H  0.69233428  0.50640944  0.92265974     0.08700
H372        H  0.71639439  0.53226301  0.88032789     0.11400
C373        C  0.68217882  0.87311218  0.61684494    -0.03200
C374        C  0.68529437  0.87512184  0.64827776    -0.05800
C375        C  0.69958378  0.85230690  0.66455192    -0.20900
C376        C  0.71085328  0.82667931  0.64996757     0.24900
C377        C  0.70596117  0.82362915  0.61869255    -0.18400
C378        C  0.69162417  0.84666705  0.60230370    -0.08400
C379        C  0.72957151  0.80528109  0.66795328    -0.18700
C380        C  0.73600309  0.77688254  0.65962367    -0.23500
C381        C  0.75500695  0.75643196  0.67829963     0.26900
C382        C  0.74919955  0.72543341  0.67747502    -0.20200
C383        C  0.76670927  0.70543658  0.69441332    -0.09900
C384        C  0.79080709  0.71595297  0.71201403    -0.10400
C385        C  0.79705710  0.74686440  0.71274925    -0.03400
C386        C  0.77921586  0.76702026  0.69607281    -0.18500
H387        H  0.67786251  0.89510732  0.66012724     0.10600
H388        H  0.70276668  0.85520340  0.68857556     0.10700
H389        H  0.71456558  0.80440435  0.60648689     0.10300
H390        H  0.68967467  0.84465449  0.57807278     0.11500
H391        H  0.73786195  0.81321006  0.68957503     0.11500
H392        H  0.72573415  0.76759308  0.63948074     0.13500
H393        H  0.73090732  0.71668813  0.66383187     0.10000
H394        H  0.76177626  0.68157782  0.69346732     0.12100
H395        H  0.81579498  0.75525896  0.72599028     0.08700
H396        H  0.78482657  0.79071454  0.69657692     0.11400
C397        C  0.79328739  0.20224596  0.80622958    -0.03200
C398        C  0.79702583  0.19389808  0.83643090    -0.05800
C399        C  0.78075543  0.20884343  0.85902647    -0.20900
C400        C  0.76071658  0.23246688  0.85179882     0.24900
C401        C  0.75698432  0.24048519  0.82135503    -0.18400
C402        C  0.77307880  0.22547326  0.79889355    -0.08400
C403        C  0.74300498  0.24705753  0.87633288    -0.18700
C404        C  0.72928613  0.27417279  0.87379841    -0.23500
C405        C  0.71120927  0.28785099  0.89853375     0.26900
C406        C  0.70881311  0.31936516  0.90067672    -0.20200
C407        C  0.69326500  0.33276418  0.92472557    -0.09900
C408        C  0.67962519  0.31479415  0.94688425    -0.10400
C409        C  0.68045116  0.28331121  0.94361111    -0.03400
C410        C  0.69600684  0.26998913  0.91977179    -0.18500
H411        H  0.81228791  0.17576607  0.84241485     0.10600
H412        H  0.78378979  0.20191676  0.88223164     0.10700
H413        H  0.74114691  0.25775878  0.81456861     0.10300
H414        H  0.76966395  0.23184693  0.77557407     0.11500
H415        H  0.74202087  0.23520209  0.89769943     0.11500
H416        H  0.73250876  0.28761120  0.85366071     0.13500
H417        H  0.71986376  0.33364030  0.88427435     0.10000
H418        H  0.69300313  0.35705857  0.92669105     0.12100
H419        H  0.66949155  0.26889810  0.95995971     0.08700
H420        H  0.69610874  0.24569278  0.91812482     0.11400
C421        C  0.69554530  0.98222648  0.60039568    -0.03200
C422        C  0.72722962  0.98247160  0.60094094    -0.05800
C423        C  0.74281523  0.00602245  0.61465919    -0.20900
C424        C  0.72716197  0.02977050  0.62848482     0.24900
C425        C  0.69532951  0.03045707  0.62633152    -0.18400
C426        C  0.67968910  0.00683320  0.61232582    -0.08400
C427        C  0.74524249  0.05208164  0.64591516    -0.18700
C428        C  0.73371650  0.07231593  0.66536135    -0.23500
C429        C  0.75322474  0.09184648  0.68436341     0.26900
C430        C  0.74295813  0.12064105  0.69227382    -0.20200
C431        C  0.76073671  0.13945032  0.71023322    -0.09900
C432        C  0.78888808  0.12962496  0.72117967    -0.10400
C433        C  0.79876812  0.10044887  0.71418540    -0.03400
C434        C  0.78120938  0.08177414  0.69578335    -0.18500
H435        H  0.73991307  0.96370830  0.59181103     0.10600
H436        H  0.76725645  0.00496549  0.61561128     0.10700
H437        H  0.68227826  0.04861241  0.63594594     0.10300
H438        H  0.65521582  0.00698378  0.61224601     0.11500
H439        H  0.76963889  0.05080337  0.64356541     0.11500
H440        H  0.70949934  0.07506422  0.66759308     0.13500
H441        H  0.72132912  0.12875802  0.68415886     0.10000
H442        H  0.75259903  0.16183857  0.71552440     0.12100
H443        H  0.81991759  0.09204506  0.72312293     0.08700
H444        H  0.78927156  0.05925264  0.69109667     0.11400
C445        C  0.02251613  0.29410122  0.60514211    -0.03200
C446        C  0.01586354  0.26378801  0.59943558    -0.05800
C447        C  0.99263202  0.24935248  0.61497480    -0.20900
C448        C  0.97565597  0.26477681  0.63675592     0.24900
C449        C  0.98154520  0.29561676  0.64157782    -0.18400
C450        C  0.00470375  0.31015116  0.62572573    -0.08400
C451        C  0.95392010  0.24707909  0.65523702    -0.18700
C452        C  0.93282035  0.25913038  0.67343319    -0.23500
C453        C  0.91210560  0.24038416  0.69190709     0.26900
C454        C  0.88330389  0.25162238  0.69873065    -0.20200
C455        C  0.86297334  0.23439648  0.71543725    -0.09900
C456        C  0.87118020  0.20575762  0.72605550    -0.10400
C457        C  0.90036659  0.19486833  0.72036444    -0.03400
C458        C  0.92067016  0.21198634  0.70333557    -0.18500
H459        H  0.02949747  0.25096569  0.58376578     0.10600
H460        H  0.98863474  0.22568138  0.61071110     0.10700
H461        H  0.96947180  0.30833075  0.65845023     0.10300
H462        H  0.00987346  0.33342328  0.63081669     0.11500
H463        H  0.95517401  0.22273686  0.65333145     0.11500
H464        H  0.92932277  0.28328555  0.67378384     0.13500
H465        H  0.87629532  0.27354501  0.69057776     0.10000
H466        H  0.84058005  0.24324762  0.71980469     0.12100
H467        H  0.90740904  0.17320274  0.72907905     0.08700
H468        H  0.94311698  0.20311560  0.69950858     0.11400
C469        C  0.02466481  0.51848414  0.62097452    -0.03200
C470        C  0.02533778  0.52122576  0.65249639    -0.05800
C471        C  0.00248324  0.53659372  0.66772546    -0.20900
C472        C  0.97841762  0.54980183  0.65189432     0.24900
C473        C  0.97663116  0.54530597  0.62045393    -0.18400
C474        C  0.99960204  0.52976566  0.60516244    -0.08400
C475        C  0.95645093  0.56848741  0.66923177    -0.18700
C476        C  0.93705033  0.58831418  0.65675996    -0.23500
C477        C  0.91607823  0.60703919  0.67497041     0.26900
C478        C  0.88734765  0.61349939  0.66331737    -0.20200
C479        C  0.86661682  0.63023932  0.68006702    -0.09900
C480        C  0.87438851  0.64147437  0.70857834    -0.10400
C481        C  0.90363820  0.63629773  0.71978341    -0.03400
C482        C  0.92427840  0.61898685  0.70321770    -0.18500
H483        H  0.04431141  0.51249556  0.66526451     0.10600
H484        H  0.00428723  0.53919617  0.69192138     0.10700
H485        H  0.95798555  0.55412611  0.60740277     0.10300
H486        H  0.99857384  0.52794868  0.58086180     0.11500
H487        H  0.95698197  0.56646301  0.69361873     0.11500
H488        H  0.93549095  0.59045352  0.63249507     0.13500
H489        H  0.88062258  0.60482106  0.64152667     0.10000
H490        H  0.84414380  0.63388505  0.67106003     0.12100
H491        H  0.91019258  0.64504968  0.74158420     0.08700
H492        H  0.94662082  0.61513919  0.71240607     0.11400
C493        C  0.35981156  0.64493121  0.79222394    -0.03200
C494        C  0.37130117  0.61670204  0.78380133    -0.05800
C495        C  0.38962680  0.60024778  0.80345374    -0.20900
C496        C  0.39727987  0.61186310  0.83178691     0.24900
C497        C  0.38527482  0.63993141  0.84054238    -0.18400
C498        C  0.36653927  0.65624061  0.82095733    -0.08400
C499        C  0.41643114  0.59336168  0.85218557    -0.18700
C500        C  0.43501987  0.60547093  0.87293273    -0.23500
C501        C  0.45255831  0.58789643  0.89570935     0.26900
C502        C  0.46798217  0.60399159  0.91814626    -0.20200
C503        C  0.48166073  0.58904127  0.94224916    -0.09900
C504        C  0.48039499  0.55752609  0.94448086    -0.10400
C505        C  0.46687299  0.54114645  0.92108340    -0.03400
C506        C  0.45303060  0.55612727  0.89691482    -0.18500
H507        H  0.36626733  0.60751756  0.76176337     0.10600
H508        H  0.39819477  0.57853543  0.79634769     0.10700
H509        H  0.38975463  0.64902653  0.86269714     0.10300
H510        H  0.35723021  0.67753209  0.82828137     0.11500
H511        H  0.41514316  0.56919569  0.84940719     0.11500
H512        H  0.43677330  0.62982991  0.87404598     0.13500
H513        H  0.46842475  0.62837290  0.91772244     0.10000
H514        H  0.49231911  0.60220968  0.95981274     0.12100
H515        H  0.46556993  0.51683235  0.92230335     0.08700
H516        H  0.44207680  0.54255595  0.87998373     0.11400
C517        C  0.27766513  0.64428490  0.71534287    -0.03200
C518        C  0.24733301  0.64909763  0.72290685    -0.05800
C519        C  0.22442789  0.63391866  0.70726897    -0.20900
C520        C  0.23148896  0.61355919  0.68401455     0.24900
C521        C  0.26202744  0.60914660  0.67638616    -0.18400
C522        C  0.28481068  0.62434136  0.69195247    -0.08400
C523        C  0.20644289  0.59837894  0.66748754    -0.18700
C524        C  0.20984045  0.57288800  0.65122434    -0.23500
C525        C  0.18436729  0.55807538  0.63508217     0.26900
C526        C  0.18505282  0.52676970  0.63035692    -0.20200
C527        C  0.16050825  0.51200623  0.61688180    -0.09900
C528        C  0.13495051  0.52839416  0.60770966    -0.10400
C529        C  0.13513354  0.55990890  0.61073795    -0.03400
C530        C  0.15952902  0.57459963  0.62419636    -0.18500
H531        H  0.24146077  0.66466108  0.74072565     0.10600
H532        H  0.20110521  0.63803807  0.71338672     0.10700
H533        H  0.26850682  0.59453154  0.65804472     0.10300
H534        H  0.30816875  0.62069055  0.68565853     0.11500
H535        H  0.18403868  0.60805825  0.66989135     0.11500
H536        H  0.23146514  0.56137054  0.65106381     0.13500
H537        H  0.20414595  0.51357296  0.63811037     0.10000
H538        H  0.16089291  0.48771085  0.61493611     0.12100
H539        H  0.11591688  0.57314708  0.60335371     0.08700
H540        H  0.15872955  0.59885823  0.62619968     0.11400
C541        C  0.35849226  0.72182696  0.71112943    -0.03200
C542        C  0.37302029  0.71207443  0.68482442    -0.05800
C543        C  0.38967834  0.73218083  0.66730827    -0.20900
C544        C  0.39259419  0.76236976  0.67598560     0.24900
C545        C  0.37752685  0.77233919  0.70210614    -0.18400
C546        C  0.36048037  0.75221029  0.71946424    -0.08400
C547        C  0.41081299  0.78290697  0.65681182    -0.18700
C548        C  0.42614871  0.80652364  0.66802564    -0.23500
C549        C  0.44465649  0.82747602  0.64947257     0.26900
C550        C  0.46596610  0.84565356  0.66417752    -0.20200
C551        C  0.48162640  0.86792696  0.64845549    -0.09900
C552        C  0.47639506  0.87249642  0.61760645    -0.10400
C553        C  0.45609499  0.85361275  0.60243831    -0.03400
C554        C  0.44021664  0.83134529  0.61822888    -0.18500
H555        H  0.37155507  0.68872978  0.67794668     0.10600
H556        H  0.40074172  0.72401588  0.64715731     0.10700
H557        H  0.37845648  0.79571357  0.70887507     0.10300
H558        H  0.34879135  0.76033412  0.73924595     0.11500
H559        H  0.41304137  0.77715895  0.63318014     0.11500
H560        H  0.42593810  0.81027348  0.69219606     0.13500
H561        H  0.46983992  0.84324585  0.68815833     0.10000
H562        H  0.49696495  0.88250476  0.66064018     0.12100
H563        H  0.45121132  0.85727882  0.57880394     0.08700
H564        H  0.42351316  0.81835699  0.60613641     0.11400
C565        C  0.18547402  0.04480420  0.55438292    -0.03200
C566        C  0.18142098  0.07582028  0.55879406    -0.05800
C567        C  0.19766324  0.09101429  0.58102173    -0.20900
C568        C  0.21840617  0.07563546  0.59939354     0.24900
C569        C  0.22160167  0.04420992  0.59577268    -0.18400
C570        C  0.20512952  0.02893883  0.57349074    -0.08400
C571        C  0.23727094  0.09372536  0.62053021    -0.18700
C572        C  0.25283063  0.08215149  0.64392031    -0.23500
C573        C  0.27042721  0.10106951  0.66531752     0.26900
C574        C  0.27378635  0.09099476  0.69506081    -0.20200
C575        C  0.28937094  0.10830050  0.71618148    -0.09900
C576        C  0.30239278  0.13589634  0.70796886    -0.10400
C577        C  0.30007523  0.14567709  0.67798682    -0.03400
C578        C  0.28409946  0.12846171  0.65681096    -0.18500
H579        H  0.16657562  0.08853631  0.54408204     0.10600
H580        H  0.19465609  0.11511689  0.58325434     0.10700
H581        H  0.23771467  0.03150621  0.60898620     0.10300
H582        H  0.20905980  0.00512372  0.57000557     0.11500
H583        H  0.23728699  0.11795595  0.61727832     0.11500
H584        H  0.25097160  0.05836315  0.64907395     0.13500
H585        H  0.26377069  0.06992080  0.70215150     0.10000
H586        H  0.29101145  0.10030771  0.73918795     0.12100
H587        H  0.31037237  0.16667357  0.67110890     0.08700
H588        H  0.28278495  0.13647253  0.63382791     0.11400
C589        C  0.28371655  0.19894545  0.72320001    -0.03200
C590        C  0.29256799  0.22737818  0.71257885    -0.05800
C591        C  0.27325282  0.24448937  0.69445784    -0.20900
C592        C  0.24485716  0.23335102  0.68605428     0.24900
C593        C  0.23577965  0.20493658  0.69692783    -0.18400
C594        C  0.25499130  0.18798300  0.71553155    -0.08400
C595        C  0.22471085  0.25263272  0.66732164    -0.18700
C596        C  0.20445041  0.24124729  0.64774007    -0.23500
C597        C  0.18203422  0.25937978  0.63018813     0.26900
C598        C  0.16054528  0.24372247  0.61300218    -0.20200
C599        C  0.13680156  0.25894596  0.59888780    -0.09900
C600        C  0.13403997  0.29033303  0.60134355    -0.10400
C601        C  0.15645267  0.30640233  0.61684421    -0.03400
C602        C  0.18022044  0.29111996  0.63123156    -0.18500
H603        H  0.31459857  0.23630674  0.71831316     0.10600
H604        H  0.28064108  0.26640220  0.68671109     0.10700
H605        H  0.21362308  0.19608977  0.69170789     0.10300
H606        H  0.24747592  0.16637242  0.72393667     0.11500
H607        H  0.22734900  0.27674369  0.66965350     0.11500
H608        H  0.20359378  0.21697317  0.64494018     0.13500
H609        H  0.16140157  0.21939971  0.61144139     0.10000
H610        H  0.11986832  0.24605112  0.58690384     0.12100
H611        H  0.15468639  0.33060743  0.61918416     0.08700
H612        H  0.19634587  0.30436440  0.64374399     0.11400
C613        C  0.47837886  0.98344485  0.61561386    -0.03200
C614        C  0.46246499  0.00464754  0.59830044    -0.05800
C615        C  0.44726644  0.02849803  0.61235195    -0.20900
C616        C  0.44761242  0.03141519  0.64388247     0.24900
C617        C  0.46540223  0.01139357  0.66091582    -0.18400
C618        C  0.48048151  0.98760438  0.64691389    -0.08400
C619        C  0.42893049  0.05521914  0.65831382    -0.18700
C620        C  0.41760160  0.05252274  0.68642563    -0.23500
C621        C  0.39798963  0.07549244  0.70109459     0.26900
C622        C  0.38085747  0.06714252  0.72644582    -0.20200
C623        C  0.36259456  0.08820550  0.74125918    -0.09900
C624        C  0.36139303  0.11804012  0.73106516    -0.10400
C625        C  0.37840591  0.12646846  0.70584522    -0.03400
C626        C  0.39664396  0.10553136  0.69106659    -0.18500
H627        H  0.46040246  0.00181720  0.57416111     0.10600
H628        H  0.43412189  0.04392778  0.59868007     0.10700
H629        H  0.46736392  0.01370511  0.68509106     0.10300
H630        H  0.49300554  0.97174159  0.66067565     0.11500
H631        H  0.42269280  0.07435072  0.64445230     0.11500
H632        H  0.42169220  0.03191803  0.69895229     0.13500
H633        H  0.38156827  0.04422872  0.73477510     0.10000
H634        H  0.34945251  0.08126625  0.76059026     0.12100
H635        H  0.37787119  0.14952024  0.69786575     0.08700
H636        H  0.41004692  0.11328665  0.67229285     0.11400
C637        C  0.46560933  0.31956660  0.94477406    -0.03200
C638        C  0.45397364  0.33567974  0.92011618    -0.05800
C639        C  0.44025295  0.32036796  0.89607236    -0.20900
C640        C  0.43773096  0.28880770  0.89647554     0.24900
C641        C  0.45099794  0.27272354  0.92034600    -0.18400
C642        C  0.46471064  0.28794360  0.94420214    -0.08400
C643        C  0.42126269  0.27306599  0.87187854    -0.18700
C644        C  0.40540675  0.24755007  0.87662279    -0.23500
C645        C  0.38869282  0.23131108  0.85253138     0.26900
C646        C  0.36356352  0.21354115  0.86025471    -0.20200
C647        C  0.34781054  0.19736165  0.83816710    -0.09900
C648        C  0.35729080  0.19842071  0.80810678    -0.10400
C649        C  0.38260606  0.21572257  0.80039202    -0.03400
C650        C  0.39816267  0.23206748  0.82233407    -0.18500
H651        H  0.45427687  0.36005535  0.92010248     0.10600
H652        H  0.43057444  0.33323235  0.87769083     0.10700
H653        H  0.45055846  0.24836695  0.92078796     0.10300
H654        H  0.47396332  0.27499369  0.96274700     0.11500
H655        H  0.42074406  0.28371689  0.84986519     0.11500
H656        H  0.40345201  0.23880031  0.89938684     0.13500
H657        H  0.35602590  0.21232881  0.88341731     0.10000
H658        H  0.32839371  0.18397449  0.84446347     0.12100
H659        H  0.39032258  0.21650082  0.77726402     0.08700
H660        H  0.41793007  0.24471253  0.81568163     0.11400
C661        C  0.68661590  0.54025607  0.05999534    -0.03200
C662        C  0.69881418  0.52094070  0.08194121    -0.05800
C663        C  0.71429024  0.53277416  0.10686062    -0.20900
C664        C  0.71793368  0.56404522  0.11014803     0.24900
C665        C  0.70386051  0.58329211  0.08920285    -0.18400
C666        C  0.68855589  0.57151446  0.06437759    -0.08400
C667        C  0.73669060  0.57602642  0.13531804    -0.18700
C668        C  0.75197769  0.60224695  0.13309319    -0.23500
C669        C  0.77127042  0.61568987  0.15715271     0.26900
C670        C  0.78807827  0.64161911  0.15009446    -0.20200
C671        C  0.80543571  0.65613793  0.17202454    -0.09900
C672        C  0.80616748  0.64514617  0.20158714    -0.10400
C673        C  0.79006240  0.61891551  0.20867541    -0.03400
C674        C  0.77269581  0.60431346  0.18676308    -0.18500
H675        H  0.69759742  0.49676404  0.07909757     0.10600
H676        H  0.72444583  0.51746046  0.12296699     0.10700
H677        H  0.70483701  0.60749190  0.09171321     0.10300
H678        H  0.67873334  0.58690318  0.04812810     0.11500
H679        H  0.73908511  0.56200801  0.15515232     0.11500
H680        H  0.75092306  0.61456194  0.11199157     0.13500
H681        H  0.78752244  0.65092146  0.12754128     0.10000
H682        H  0.81795510  0.67619098  0.16606143     0.12100
H683        H  0.79040893  0.61014642  0.23145097     0.08700
H684        H  0.76005839  0.58466690  0.19348606     0.11400
C685        C  0.88510086  0.64482877  0.28238723    -0.03200
C686        C  0.91376521  0.63992988  0.26995526    -0.05800
C687        C  0.93471891  0.62159609  0.28483654    -0.20900
C688        C  0.92750369  0.60781291  0.31243179     0.24900
C689        C  0.89913455  0.61384733  0.32545984    -0.18400
C690        C  0.87817258  0.63216893  0.31049899    -0.08400
C691        C  0.95038802  0.58756573  0.32652719    -0.18700
C692        C  0.94492094  0.56816395  0.34930821    -0.23500
C693        C  0.96910017  0.54863350  0.36201279     0.26900
C694        C  0.96957239  0.54229588  0.39301702    -0.20200
C695        C  0.99406062  0.52685655  0.40590962    -0.09900
C696        C  0.01826304  0.51723101  0.38786236    -0.10400
C697        C  0.01638605  0.52132298  0.35650184    -0.03400
C698        C  0.99212923  0.53686248  0.34371320    -0.18500
H699        H  0.91959984  0.64969922  0.24838442     0.10600
H700        H  0.95647699  0.61766371  0.27440627     0.10700
H701        H  0.89284432  0.60453327  0.34703041     0.10300
H702        H  0.85617529  0.63590237  0.32050150     0.11500
H703        H  0.97305743  0.58854074  0.31724894     0.11500
H704        H  0.92287069  0.56718491  0.35981111     0.13500
H705        H  0.95176227  0.55065755  0.40748293     0.10000
H706        H  0.99487177  0.52397340  0.43011632     0.12100
H707        H  0.03431226  0.51339190  0.34192979     0.08700
H708        H  0.99173940  0.54010840  0.31955047     0.11400
C709        C  0.69475603  0.86912628  0.39062903    -0.03200
C710        C  0.67679792  0.84653785  0.37772139    -0.05800
C711        C  0.69025145  0.82268874  0.36197294    -0.20900
C712        C  0.72183618  0.82103597  0.35875307     0.24900
C713        C  0.73977917  0.84264528  0.37341743    -0.18400
C714        C  0.72636823  0.86642046  0.38904106    -0.08400
C715        C  0.73525996  0.79636094  0.34035568    -0.18700
C716        C  0.76293963  0.79800625  0.32756827    -0.23500
C717        C  0.77736541  0.77343926  0.30964101     0.26900
C718        C  0.80494031  0.77932106  0.29495020    -0.20200
C719        C  0.82009647  0.75661211  0.27907270    -0.09900
C720        C  0.80796252  0.72752886  0.27773508    -0.10400
C721        C  0.78030051  0.72166489  0.29187441    -0.03400
C722        C  0.76518214  0.74422565  0.30774008    -0.18500
H723        H  0.65239336  0.84809648  0.37856640     0.10600
H724        H  0.67589028  0.80602590  0.35140748     0.10700
H725        H  0.76417218  0.84145463  0.37284343     0.10300
H726        H  0.74076045  0.88321530  0.39936043     0.11500
H727        H  0.72107804  0.77692486  0.33642776     0.11500
H728        H  0.77581298  0.81863416  0.32987756     0.13500
H729        H  0.81499564  0.80150705  0.29605900     0.10000
H730        H  0.84145665  0.76153883  0.26829554     0.12100
H731        H  0.77072827  0.69924244  0.29119424     0.08700
H732        H  0.74443446  0.73817881  0.31892221     0.11400
C733        C  0.77794757  0.14215589  0.21182218    -0.03200
C734        C  0.78683329  0.13044938  0.18386357    -0.05800
C735        C  0.76723956  0.11243734  0.16709802    -0.20900
C736        C  0.73850761  0.10519320  0.17816221     0.24900
C737        C  0.72926550  0.11752126  0.20595414    -0.18400
C738        C  0.74885991  0.13589009  0.22261897    -0.08400
C739        C  0.71881960  0.08516740  0.15979391    -0.18700
C740        C  0.69730379  0.06750363  0.17187969    -0.23500
C741        C  0.67694820  0.04722612  0.15438517     0.26900
C742        C  0.65810025  0.02772260  0.17062347    -0.20200
C743        C  0.63606619  0.01071552  0.15598596    -0.09900
C744        C  0.63228193  0.01274140  0.12465579    -0.10400
C745        C  0.65222393  0.03070869  0.10798196    -0.03400
C746        C  0.67431449  0.04794481  0.12267986    -0.18500
H747        H  0.80928374  0.13484131  0.17525584     0.10600
H748        H  0.77484195  0.10353190  0.14570256     0.10700
H749        H  0.70689905  0.11330529  0.21476042     0.10300
H750        H  0.74146697  0.14497813  0.24399384     0.11500
H751        H  0.72354643  0.08395388  0.13589266     0.11500
H752        H  0.69456212  0.06746534  0.19617208     0.13500
H753        H  0.65961598  0.02647938  0.19494984     0.10000
H754        H  0.62087774  0.99704545  0.16933400     0.12100
H755        H  0.64941290  0.03295266  0.08384548     0.08700
H756        H  0.68808329  0.06271022  0.10911811     0.11400
C757        C  0.79249012  0.20551468  0.19865131    -0.03200
C758        C  0.77227736  0.22552551  0.21247468    -0.05800
C759        C  0.75367106  0.24411419  0.19514659    -0.20900
C760        C  0.75430251  0.24244077  0.16366374     0.24900
C761        C  0.77448567  0.22221325  0.14971942    -0.18400
C762        C  0.79366951  0.20401822  0.16715137    -0.08400
C763        C  0.73454226  0.26291595  0.14599956    -0.18700
C764        C  0.72104320  0.25423463  0.12032435    -0.23500
C765        C  0.70192033  0.27430761  0.10138177     0.26900
C766        C  0.68191519  0.26097872  0.08085859    -0.20200
C767        C  0.66707809  0.27839331  0.05923770    -0.09900
C768        C  0.67204619  0.30955058  0.05753014    -0.10400
C769        C  0.69040680  0.32336947  0.07924788    -0.03400
C770        C  0.70531496  0.30588342  0.10104159    -0.18500
H771        H  0.77121395  0.22696336  0.23680824     0.10600
H772        H  0.73850332  0.25963231  0.20634970     0.10700
H773        H  0.77592085  0.22097537  0.12541627     0.10300
H774        H  0.80940039  0.18894302  0.15615756     0.11500
H775        H  0.72977938  0.28499598  0.15531734     0.11500
H776        H  0.72377623  0.23106086  0.11295469     0.13500
H777        H  0.67881213  0.23679240  0.08065121     0.10000
H778        H  0.65314803  0.26727378  0.04254101     0.12100
H779        H  0.69497135  0.34728213  0.07796147     0.08700
H780        H  0.72092202  0.31694675  0.11615701     0.11400
C781        C  0.79748433  0.12230987  0.27239457    -0.03200
C782        C  0.80015406  0.09207450  0.26388289    -0.05800
C783        C  0.78629347  0.06956471  0.28108649    -0.20900
C784        C  0.76912564  0.07699876  0.30667823     0.24900
C785        C  0.76625859  0.10745017  0.31484286    -0.18400
C786        C  0.78039234  0.12983547  0.29787036    -0.08400
C787        C  0.75598642  0.05241007  0.32521325    -0.18700
C788        C  0.73167865  0.05590466  0.34318812    -0.23500
C789        C  0.71902434  0.03067078  0.36113068     0.26900
C790        C  0.68769453  0.02890866  0.36581461    -0.20200
C791        C  0.67509955  0.00406121  0.38066071    -0.09900
C792        C  0.69372643  0.98074047  0.39138563    -0.10400
C793        C  0.72523727  0.98362353  0.38845798    -0.03400
C794        C  0.73775345  0.00825750  0.37347620    -0.18500
H795        H  0.81339241  0.08593093  0.24433400     0.10600
H796        H  0.78905187  0.04626635  0.27446686     0.10700
H797        H  0.75395405  0.11404133  0.33481043     0.10300
H798        H  0.77834938  0.15312067  0.30480587     0.11500
H799        H  0.76606949  0.03021265  0.32298648     0.11500
H800        H  0.71946771  0.07711211  0.34326857     0.13500
H801        H  0.67285478  0.04616995  0.35688757     0.10000
H802        H  0.65076649  0.00243509  0.38253504     0.12100
H803        H  0.74021642  0.96637934  0.39718821     0.08700
H804        H  0.76207767  0.00958227  0.37134781     0.11400
C805        C  0.29378135  0.61902498  0.22849352    -0.03200
C806        C  0.29256720  0.58975811  0.24017087    -0.05800
C807        C  0.27629168  0.56741303  0.22503542    -0.20900
C808        C  0.26106734  0.57385973  0.19790699     0.24900
C809        C  0.26263333  0.60332728  0.18623938    -0.18400
C810        C  0.27895483  0.62555881  0.20135900    -0.08400
C811        C  0.24329542  0.54941271  0.18323504    -0.18700
C812        C  0.23105482  0.55114974  0.15537538    -0.23500
C813        C  0.21371736  0.52614989  0.14123720     0.26900
C814        C  0.21113722  0.52505337  0.10967276    -0.20200
C815        C  0.19652721  0.50093480  0.09550307    -0.09900
C816        C  0.18417520  0.47750444  0.11271620    -0.10400
C817        C  0.18523253  0.47948455  0.14429427    -0.03400
C818        C  0.19967170  0.50354892  0.15842131    -0.18500
H819        H  0.30407045  0.58428848  0.26101407     0.10600
H820        H  0.27548205  0.54500881  0.23464631     0.10700
H821        H  0.25093694  0.60974869  0.16586766     0.10300
H822        H  0.27960488  0.64814707  0.19215733     0.11500
H823        H  0.24109351  0.52863991  0.19588690     0.11500
H824        H  0.23499869  0.57080852  0.14150446     0.13500
H825        H  0.22129741  0.54242502  0.09589309     0.10000
H826        H  0.19604826  0.49993090  0.07113888     0.12100
H827        H  0.17528528  0.46200852  0.15810657     0.08700
H828        H  0.19976833  0.50418540  0.18275841     0.11400
C829        C  0.35346089  0.63856764  0.20933517    -0.03200
C830        C  0.36599758  0.61064741  0.21735635    -0.05800
C831        C  0.38310917  0.59421934  0.19668445    -0.20900
C832        C  0.38854172  0.60560267  0.16772877     0.24900
C833        C  0.37545086  0.63337697  0.15945948    -0.18400
C834        C  0.35792866  0.64962759  0.18007657    -0.08400
C835        C  0.40724211  0.58750553  0.14659395    -0.18700
C836        C  0.42399383  0.60001496  0.12461194    -0.23500
C837        C  0.44279137  0.58284967  0.10265417     0.26900
C838        C  0.46227162  0.59921558  0.08388272    -0.20200
C839        C  0.47806185  0.58499589  0.06072264    -0.09900
C840        C  0.47484239  0.55396638  0.05574258    -0.10400
C841        C  0.45669492  0.53711566  0.07537660    -0.03400
C842        C  0.44064124  0.55140720  0.09854872    -0.18500
H843        H  0.36272560  0.60169862  0.23981782     0.10600
H844        H  0.39260167  0.57277669  0.20351439     0.10700
H845        H  0.37824813  0.64236724  0.13698484     0.10300
H846        H  0.34786765  0.67077783  0.17322262     0.11500
H847        H  0.40826652  0.56344383  0.15050292     0.11500
H848        H  0.42442871  0.62438854  0.12275525     0.13500
H849        H  0.46456306  0.62334897  0.08650305     0.10000
H850        H  0.49199277  0.59846530  0.04588841     0.12100
H851        H  0.45357208  0.51322283  0.07170717     0.08700
H852        H  0.42571381  0.53782428  0.11213562     0.11400
C853        C  0.27118970  0.64152088  0.28586025    -0.03200
C854        C  0.24096199  0.64542789  0.27742049    -0.05800
C855        C  0.21829429  0.62884412  0.29178743    -0.20900
C856        C  0.22552072  0.60824439  0.31482101     0.24900
C857        C  0.25598775  0.60459944  0.32320502    -0.18400
C858        C  0.27853238  0.62115559  0.30886126    -0.08400
C859        C  0.20097314  0.58975762  0.32818190    -0.18700
C860        C  0.20335135  0.57490087  0.35461121    -0.23500
C861        C  0.17859211  0.55598788  0.36681949     0.26900
C862        C  0.17559577  0.55256117  0.39813704    -0.20200
C863        C  0.15142945  0.53621861  0.41021495    -0.09900
C864        C  0.13002096  0.52288894  0.39108166    -0.10400
C865        C  0.13403988  0.52488132  0.35976726    -0.03400
C866        C  0.15810016  0.54114114  0.34773857    -0.18500
H867        H  0.23504761  0.66090839  0.25949098     0.10600
H868        H  0.19505936  0.63188692  0.28469570     0.10700
H869        H  0.26275746  0.58839176  0.34009308     0.10300
H870        H  0.30191029  0.61768811  0.31528151     0.11500
H871        H  0.17973396  0.58901034  0.31593152     0.11500
H872        H  0.22324529  0.57777168  0.36859737     0.13500
H873        H  0.19139570  0.56340014  0.41328186     0.10000
H874        H  0.14875223  0.53507263  0.43442792     0.12100
H875        H  0.11813746  0.51427964  0.34455406     0.08700
H876        H  0.16047943  0.54212956  0.32351010     0.11400
C877        C  0.35226659  0.71759455  0.28870090    -0.03200
C878        C  0.36364542  0.70778205  0.31655255    -0.05800
C879        C  0.38047813  0.72712928  0.33467248    -0.20900
C880        C  0.38672643  0.75648244  0.32505217     0.24900
C881        C  0.37479702  0.76659457  0.29736733    -0.18400
C882        C  0.35752221  0.74727482  0.27937813    -0.08400
C883        C  0.40515431  0.77615618  0.34474578    -0.18700
C884        C  0.42473148  0.79636193  0.33351727    -0.23500
C885        C  0.44334983  0.81738494  0.35190162     0.26900
C886        C  0.46172664  0.83794073  0.33645871    -0.20200
C887        C  0.47685654  0.86067591  0.35192000    -0.09900
C888        C  0.47413500  0.86329413  0.38325949    -0.10400
C889        C  0.45753260  0.84168972  0.39917640    -0.03400
C890        C  0.44218615  0.81887021  0.38366632    -0.18500
H891        H  0.35957774  0.68497061  0.32417120     0.10600
H892        H  0.38913449  0.71897991  0.35601912     0.10700
H893        H  0.37839696  0.78949151  0.28985316     0.10300
H894        H  0.34817371  0.75549130  0.25838431     0.11500
H895        H  0.40331742  0.77260880  0.36879807     0.11500
H896        H  0.42708030  0.79787247  0.30920175     0.13500
H897        H  0.46329913  0.83731197  0.31211859     0.10000
H898        H  0.48934714  0.87735367  0.33922421     0.12100
H899        H  0.45482105  0.84364901  0.42333729     0.08700
H900        H  0.42863354  0.80348035  0.39671362     0.11400
C901        C  0.30016125  0.13636343  0.29201761    -0.03200
C902        C  0.28912656  0.10799614  0.28357219    -0.05800
C903        C  0.27320828  0.09025657  0.30405740    -0.20900
C904        C  0.26738214  0.10080430  0.33320484     0.24900
C905        C  0.27902983  0.12900374  0.34194956    -0.18400
C906        C  0.29541588  0.14658960  0.32151050    -0.08400
C907        C  0.24945924  0.08165528  0.35397261    -0.18700
C908        C  0.23076551  0.09339974  0.37477939    -0.23500
C909        C  0.21249147  0.07560549  0.39664973     0.26900
C910        C  0.19451577  0.09162038  0.41715357    -0.20200
C911        C  0.17944338  0.07676193  0.44034536    -0.09900
C912        C  0.18181268  0.04542606  0.44356297    -0.10400
C913        C  0.19809979  0.02896040  0.42208082    -0.03400
C914        C  0.21343842  0.04388298  0.39882682    -0.18500
H915        H  0.29249863  0.09977134  0.26086552     0.10600
H916        H  0.26475269  0.06854340  0.29688397     0.10700
H917        H  0.27577513  0.13736242  0.36459930     0.10300
H918        H  0.30415108  0.16821352  0.32857225     0.11500
H919        H  0.25080448  0.05753552  0.35073416     0.11500
H920        H  0.22870621  0.11774111  0.37601478     0.13500
H921        H  0.19304699  0.11594147  0.41598199     0.10000
H922        H  0.16695749  0.08991526  0.45668260     0.12100
H923        H  0.20042091  0.00478592  0.42433175     0.08700
H924        H  0.22671979  0.03042328  0.38353383     0.11400
C925        C  0.52105900  0.01186803  0.12406137    -0.03200
C926        C  0.51709441  0.01027082  0.15537196    -0.05800
C927        C  0.49460852  0.02714605  0.16946754    -0.20900
C928        C  0.47558123  0.04613727  0.15267943     0.24900
C929        C  0.47826668  0.04617500  0.12098895    -0.18400
C930        C  0.50079527  0.02907024  0.10684957    -0.08400
C931        C  0.45483871  0.06645286  0.16962511    -0.18700
C932        C  0.43552132  0.08627827  0.15704266    -0.23500
C933        C  0.41586102  0.10614638  0.17544611     0.26900
C934        C  0.38697759  0.11339816  0.16467651    -0.20200
C935        C  0.36728825  0.13069492  0.18209476    -0.09900
C936        C  0.37630685  0.14164760  0.21036953    -0.10400
C937        C  0.40578523  0.13582780  0.22052428    -0.03400
C938        C  0.42537728  0.11805945  0.20329021    -0.18500
H939        H  0.53246932  0.99709366  0.16910732     0.10600
H940        H  0.49296317  0.02632236  0.19379713     0.10700
H941        H  0.46406850  0.06014496  0.10695279     0.10300
H942        H  0.50363952  0.03083139  0.08268766     0.11500
H943        H  0.45568494  0.06504616  0.19404455     0.11500
H944        H  0.43255744  0.08713760  0.13284600     0.13500
H945        H  0.37929043  0.10485525  0.14314896     0.10000
H946        H  0.34466848  0.13504348  0.17378354     0.12100
H947        H  0.41349243  0.14471074  0.24187578     0.08700
H948        H  0.44795093  0.11379879  0.21170004     0.11400
C949        C  0.18316308  0.36595640  0.11116703    -0.03200
C950        C  0.19279965  0.34179793  0.09314642    -0.05800
C951        C  0.20698881  0.31671254  0.10625630    -0.20900
C952        C  0.21208974  0.31552127  0.13749487     0.24900
C953        C  0.20086245  0.33887841  0.15561642    -0.18400
C954        C  0.18651453  0.36369467  0.14261754    -0.08400
C955        C  0.22896289  0.28972950  0.15076824    -0.18700
C956        C  0.24664465  0.29268545  0.17539220    -0.23500
C957        C  0.26381718  0.26743070  0.18928159     0.26900
C958        C  0.28976540  0.27386719  0.20643331    -0.20200
C959        C  0.30613558  0.25071623  0.22037061    -0.09900
C960        C  0.29648247  0.22082866  0.21774256    -0.10400
C961        C  0.27031295  0.21433301  0.20114552    -0.03400
C962        C  0.25413607  0.23737730  0.18694714    -0.18500
H963        H  0.19054292  0.34286359  0.06888257     0.10600
H964        H  0.21499538  0.29872175  0.09187248     0.10700
H965        H  0.20320750  0.33809320  0.17987379     0.10300
H966        H  0.17852467  0.38152000  0.15721683     0.11500
H967        H  0.22814056  0.26836695  0.13895724     0.11500
H968        H  0.24977017  0.31486938  0.18515943     0.13500
H969        H  0.29749696  0.29685498  0.20885445     0.10000
H970        H  0.32624434  0.25604804  0.23322006     0.12100
H971        H  0.26253278  0.19131957  0.19909794     0.08700
H972        H  0.23379253  0.23162863  0.17472139     0.11400
C973        C  0.35512467  0.20186513  0.19362741    -0.03200
C974        C  0.34119055  0.20645605  0.16562609    -0.05800
C975        C  0.35486338  0.22475271  0.14391616    -0.20900
C976        C  0.38278087  0.23876924  0.14965537     0.24900
C977        C  0.39715945  0.23322060  0.17745890    -0.18400
C978        C  0.38339451  0.21500191  0.19916623    -0.08400
C979        C  0.39591326  0.25852233  0.12581992    -0.18700
C980        C  0.41982437  0.27704022  0.12963345    -0.23500
C981        C  0.43225191  0.29587220  0.10479959     0.26900
C982        C  0.46318679  0.30302292  0.10463090    -0.20200
C983        C  0.47597976  0.31851481  0.08025440    -0.09900
C984        C  0.45795061  0.32734190  0.05571337    -0.10400
C985        C  0.42665203  0.32207674  0.05696457    -0.03400
C986        C  0.41392265  0.30659450  0.08120444    -0.18500
H987        H  0.31958813  0.19614862  0.16072024     0.10600
H988        H  0.34337709  0.22825114  0.12263514     0.10700
H989        H  0.41896812  0.24271034  0.18275694     0.10300
H990        H  0.39460347  0.21149940  0.22059786     0.11500
H991        H  0.38515235  0.25757863  0.10385773     0.11500
H992        H  0.43161647  0.27780895  0.15100729     0.13500
H993        H  0.47771854  0.29548717  0.12279850     0.10000
H994        H  0.50015131  0.32222574  0.07989502     0.12100
H995        H  0.41208622  0.32927613  0.03868716     0.08700
H996        H  0.38977850  0.30284380  0.08120026     0.11400
C997        C  0.36161635  0.12273848  0.27300368    -0.03200
C998        C  0.37973369  0.13379287  0.29642871    -0.05800
C999        C  0.39789148  0.11435315  0.31329706    -0.20900
C1000       C  0.39770061  0.08333553  0.30764205     0.24900
C1001       C  0.37953815  0.07214698  0.28405111    -0.18400
C1002       C  0.36174488  0.09180190  0.26668789    -0.08400
C1003       C  0.41708089  0.06350326  0.32651385    -0.18700
C1004       C  0.40855385  0.03569052  0.33483722    -0.23500
C1005       C  0.42664796  0.01582495  0.35501901     0.26900
C1006       C  0.41163306  0.99265555  0.37030290    -0.20200
C1007       C  0.42779392  0.97146626  0.38703913    -0.09900
C1008       C  0.45947534  0.97269139  0.38865257    -0.10400
C1009       C  0.47458879  0.99666242  0.37468468    -0.03400
C1010       C  0.45832570  0.01808299  0.35791781    -0.18500
H1011       H  0.37991334  0.15763928  0.30150720     0.10600
H1012       H  0.41176733  0.12351080  0.33118537     0.10700
H1013       H  0.37944125  0.04837175  0.27873957     0.10300
H1014       H  0.34805348  0.08296356  0.24851729     0.11500
H1015       H  0.43763065  0.07309574  0.33575990     0.11500
H1016       H  0.38652489  0.02756306  0.32772463     0.13500
H1017       H  0.38731932  0.99040916  0.36857859     0.10000
H1018       H  0.41563675  0.95312506  0.39758083     0.12100
H1019       H  0.49903120  0.99773101  0.37515648     0.08700
H1020       H  0.47078464  0.03530882  0.34604260     0.11400
C1021       C  0.02105254  0.29696444  0.39717297    -0.03200
C1022       C  0.01880746  0.26551004  0.39888917    -0.05800
C1023       C  0.99560511  0.25034606  0.38402834    -0.20900
C1024       C  0.97416931  0.26615915  0.36684082     0.24900
C1025       C  0.97537040  0.29794468  0.36659684    -0.18400
C1026       C  0.99863322  0.31317132  0.38173048    -0.08400
C1027       C  0.95236028  0.24814848  0.34862407    -0.18700
C1028       C  0.93251481  0.25963638  0.32864619    -0.23500
C1029       C  0.91258629  0.24032750  0.30989032     0.26900
C1030       C  0.88408627  0.25130779  0.30153919    -0.20200
C1031       C  0.86458370  0.23371787  0.28423688    -0.09900
C1032       C  0.87338788  0.20498951  0.27433458    -0.10400
C1033       C  0.90237816  0.19436457  0.28157757    -0.03400
C1034       C  0.92175922  0.21177961  0.29942770    -0.18500
H1035       H  0.03585107  0.25255167  0.41074105     0.10600
H1036       H  0.99518063  0.22597874  0.38497923     0.10700
H1037       H  0.95916808  0.31126030  0.35417207     0.10300
H1038       H  0.00006832  0.33744775  0.37998249     0.11500
H1039       H  0.95325080  0.22386156  0.35137829     0.11500
H1040       H  0.92986407  0.28375383  0.32625034     0.13500
H1041       H  0.87665417  0.27333637  0.30893975     0.10000
H1042       H  0.84235136  0.24241573  0.27878277     0.12100
H1043       H  0.90989303  0.17257808  0.27361632     0.08700
H1044       H  0.94403096  0.20308307  0.30456780     0.11400
C1045       C  0.27687214  0.19622299  0.27478154    -0.03200
C1046       C  0.24750653  0.18453266  0.27439374    -0.05800
C1047       C  0.22465293  0.19823739  0.29136779    -0.20900
C1048       C  0.23068557  0.22391397  0.30895056     0.24900
C1049       C  0.26029060  0.23549717  0.30919640    -0.18400
C1050       C  0.28303606  0.22184807  0.29214577    -0.08400
C1051       C  0.20583838  0.23694294  0.32757511    -0.18700
C1052       C  0.20651056  0.26454542  0.34039515    -0.23500
C1053       C  0.18139364  0.27682483  0.35914277     0.26900
C1054       C  0.17829425  0.30818944  0.36243652    -0.20200
C1055       C  0.15405505  0.32046247  0.37868104    -0.09900
C1056       C  0.13250145  0.30153815  0.39200652    -0.10400
C1057       C  0.13657271  0.27020232  0.39014313    -0.03400
C1058       C  0.16074195  0.25797056  0.37405947    -0.18500
H1059       H  0.24239346  0.16471325  0.26115941     0.10600
H1060       H  0.20217543  0.18864976  0.29087254     0.10700
H1061       H  0.26632970  0.25460815  0.32296127     0.10300
H1062       H  0.30571174  0.23096102  0.29288758     0.11500
H1063       H  0.18568180  0.22329517  0.32995891     0.11500
H1064       H  0.22535340  0.27945545  0.33598737     0.13500
H1065       H  0.19415317  0.32325981  0.35163283     0.10000
H1066       H  0.15142309  0.34468296  0.37970635     0.12100
H1067       H  0.12060619  0.25508554  0.40073314     0.08700
H1068       H  0.16302537  0.23374473  0.37338709     0.11400
C1069       C  0.52557916  0.81776993  0.87652434    -0.03200
C1070       C  0.52692511  0.81960912  0.84496184    -0.05800
C1071       C  0.50556147  0.80496499  0.82712681    -0.20900
C1072       C  0.48211048  0.78850292  0.84039668     0.24900
C1073       C  0.47962410  0.78819954  0.87207443    -0.18400
C1074       C  0.50120936  0.80280695  0.88998830    -0.08400
C1075       C  0.46236821  0.77006417  0.82057371    -0.18700
C1076       C  0.43418044  0.76182658  0.82809386    -0.23500
C1077       C  0.41457471  0.74329893  0.80829169     0.26900
C1078       C  0.38321443  0.74701742  0.81042738    -0.20200
C1079       C  0.36377972  0.72936211  0.79318657    -0.09900
C1080       C  0.37528378  0.70733129  0.77372996    -0.10400
C1081       C  0.40660233  0.70335468  0.77137369    -0.03400
C1082       C  0.42620299  0.72126732  0.78855463    -0.18500
H1083       H  0.54564314  0.83092792  0.83410217     0.10600
H1084       H  0.50798000  0.80562583  0.80285895     0.10700
H1085       H  0.46219921  0.77525048  0.88314892     0.10300
H1086       H  0.50008002  0.80059556  0.91425508     0.11500
H1087       H  0.47107725  0.76398018  0.79854202     0.11500
H1088       H  0.42433328  0.77029403  0.84880367     0.13500
H1089       H  0.37371153  0.76367255  0.82550981     0.10000
H1090       H  0.33960420  0.73261289  0.79523193     0.12100
H1091       H  0.41574372  0.68626236  0.75657986     0.08700
H1092       H  0.45027492  0.71732203  0.78693845     0.11400
C1093       C  0.63478779  0.80321935  0.89170206    -0.03200
C1094       C  0.66138802  0.81938902  0.88599018    -0.05800
C1095       C  0.68563052  0.80552296  0.87110487    -0.20900
C1096       C  0.68355401  0.77541919  0.86150878     0.24900
C1097       C  0.65770888  0.75878152  0.86914976    -0.18400
C1098       C  0.63369334  0.77252080  0.88407940    -0.08400
C1099       C  0.70867404  0.76190411  0.84383302    -0.18700
C1100       C  0.70447425  0.73917733  0.82402338    -0.23500
C1101       C  0.72889549  0.72469440  0.80598935     0.26900
C1102       C  0.72219323  0.69809722  0.79008051    -0.20200
C1103       C  0.74438130  0.68344223  0.77305528    -0.09900
C1104       C  0.77365542  0.69523180  0.77160082    -0.10400
C1105       C  0.78036065  0.72195144  0.78695601    -0.03400
C1106       C  0.75829675  0.73659514  0.80396085    -0.18500
H1107       H  0.66283022  0.84306215  0.89160070     0.10600
H1108       H  0.70556898  0.81866702  0.86601058     0.10700
H1109       H  0.65580527  0.73517024  0.86354689     0.10300
H1110       H  0.61371916  0.75931036  0.88888322     0.11500
H1111       H  0.73082581  0.77170587  0.84694854     0.11500
H1112       H  0.68182685  0.73047418  0.82067046     0.13500
H1113       H  0.69974989  0.68846733  0.79103692     0.10000
H1114       H  0.73883901  0.66286594  0.76122451     0.12100
H1115       H  0.80290963  0.73135034  0.78593803     0.08700
H1116       H  0.76459034  0.75722267  0.81512470     0.11400
C1117       C  0.19717406  0.37196348  0.89141919    -0.03200
C1118       C  0.22884089  0.37325032  0.89165403    -0.05800
C1119       C  0.24595873  0.34986607  0.87946813    -0.20900
C1120       C  0.23187894  0.32476181  0.86643808     0.24900
C1121       C  0.20004112  0.32275216  0.86768402    -0.18400
C1122       C  0.18288360  0.34620658  0.88010852    -0.07200
C1123       C  0.25146596  0.30211005  0.85112852    -0.18700
C1124       C  0.24116013  0.28008816  0.83302754    -0.23500
C1125       C  0.26136934  0.25880761  0.81689094     0.26900
C1126       C  0.25045891  0.22997079  0.81024933    -0.20200
C1127       C  0.26836127  0.20936234  0.79466484    -0.09900
C1128       C  0.29743408  0.21727492  0.78495588    -0.10400
C1129       C  0.30829520  0.24633158  0.79090485    -0.03400
C1130       C  0.29044722  0.26695238  0.80685613    -0.18500
H1131       H  0.24031123  0.39292866  0.90038295     0.10600
H1132       H  0.27034293  0.35196103  0.87923436     0.10700
H1133       H  0.18807893  0.30357493  0.85874694     0.10300
H1134       H  0.15845177  0.34486007  0.87963207     0.11500
H1135       H  0.27569750  0.30428580  0.85432217     0.11500
H1136       H  0.21710665  0.27681029  0.83003847     0.13500
H1137       H  0.22809008  0.22324399  0.81745560     0.10000
H1138       H  0.25960014  0.18702817  0.79030988     0.12100
H1139       H  0.33046011  0.25303824  0.78314734     0.08700
H1140       H  0.29919232  0.28934762  0.81070973     0.11400
C1141       C  0.29770051  0.62726052  0.77687904    -0.03200
C1142       C  0.28839258  0.63583548  0.80587079    -0.05800
C1143       C  0.27119866  0.61639566  0.82364496    -0.20900
C1144       C  0.26232689  0.58821836  0.81259781     0.24900
C1145       C  0.27214718  0.57929077  0.78377816    -0.18400
C1146       C  0.28990923  0.59856345  0.76620180    -0.08400
C1147       C  0.24397557  0.56822986  0.83220668    -0.18700
C1148       C  0.22356474  0.54864127  0.82119332    -0.23500
C1149       C  0.20647322  0.52663056  0.83992426     0.26900
C1150       C  0.19386378  0.50156944  0.82544042    -0.20200
C1151       C  0.18042623  0.47853430  0.84205709    -0.09900
C1152       C  0.17899779  0.48008008  0.87363289    -0.10400
C1153       C  0.18956331  0.50607931  0.88812387    -0.03400
C1154       C  0.20321589  0.52920569  0.87144301    -0.18500
H1155       H  0.29421276  0.65782580  0.81463793     0.10600
H1156       H  0.26431242  0.62361650  0.84590098     0.10700
H1157       H  0.26667439  0.55723640  0.77502740     0.10300
H1158       H  0.29759122  0.59104156  0.74434804     0.11500
H1159       H  0.24742878  0.57014466  0.85630104     0.11500
H1160       H  0.22020218  0.54758862  0.79697663     0.13500
H1161       H  0.19559694  0.49912207  0.80122710     0.10000
H1162       H  0.17225975  0.45878144  0.83031767     0.12100
H1163       H  0.18874294  0.50777007  0.91243870     0.08700
H1164       H  0.21163191  0.54860863  0.88345476     0.11400
C1165       C  0.63585470  0.02864537  0.89838124    -0.03200
C1166       C  0.65388493  0.01044497  0.87982870    -0.05800
C1167       C  0.67738559  0.02323466  0.86295079    -0.20900
C1168       C  0.68303726  0.05436169  0.86427150     0.24900
C1169       C  0.66609927  0.07206751  0.88435450    -0.18400
C1170       C  0.64268665  0.05937340  0.90101546    -0.08400
C1171       C  0.70661167  0.06789521  0.84461586    -0.18700
C1172       C  0.70513714  0.09676173  0.83510038    -0.23500
C1173       C  0.72828227  0.11192987  0.81611781     0.26900
C1174       C  0.72117005  0.14009896  0.80339076    -0.20200
C1175       C  0.74261523  0.15611433  0.78676238    -0.09900
C1176       C  0.77173594  0.14439221  0.78286322    -0.10400
C1177       C  0.77882659  0.11609025  0.79502931    -0.03400
C1178       C  0.75741293  0.09999941  0.81158593    -0.18500
H1179       H  0.64887685  0.98672557  0.87730629     0.10600
H1180       H  0.69042971  0.00901748  0.84801077     0.10700
H1181       H  0.67064234  0.09582248  0.88712185     0.10300
H1182       H  0.62926673  0.07376931  0.91545908     0.11500
H1183       H  0.72456953  0.05323891  0.83683743     0.11500
H1184       H  0.68546582  0.11012900  0.84098546     0.13500
H1185       H  0.69896787  0.14989173  0.80653606     0.10000
H1186       H  0.73658890  0.17772761  0.77719272     0.12100
H1187       H  0.80128677  0.10676393  0.79225014     0.08700
H1188       H  0.76419948  0.07876474  0.82137360     0.11400
C1189       C  0.52551892  0.03970663  0.90882280    -0.03200
C1190       C  0.52531869  0.07126397  0.91085630    -0.05800
C1191       C  0.50301497  0.08815465  0.89631093    -0.20900
C1192       C  0.48027750  0.07394548  0.87952706     0.24900
C1193       C  0.47938187  0.04219764  0.87902055    -0.18400
C1194       C  0.50178620  0.02525004  0.89368914    -0.08400
C1195       C  0.45987922  0.09305944  0.86082636    -0.18700
C1196       C  0.43300014  0.08390289  0.85005973    -0.23500
C1197       C  0.41352100  0.10318978  0.83069197     0.26900
C1198       C  0.38211182  0.09943167  0.83207654    -0.20200
C1199       C  0.36303464  0.11649674  0.81368521    -0.09900
C1200       C  0.37501402  0.13716395  0.79304985    -0.10400
C1201       C  0.40637805  0.14099495  0.79132694    -0.03400
C1202       C  0.42555551  0.12417505  0.81009462    -0.18500
H1203       H  0.54342578  0.08291627  0.92240631     0.10600
H1204       H  0.50422725  0.11249428  0.89720333     0.10700
H1205       H  0.46259086  0.03033735  0.86592408     0.10300
H1206       H  0.50175957  0.00097668  0.89141960     0.11500
H1207       H  0.46716944  0.11594592  0.85623500     0.11500
H1208       H  0.42410453  0.06216330  0.85675554     0.13500
H1209       H  0.37230503  0.08334017  0.84756379     0.10000
H1210       H  0.33881974  0.11334353  0.81524522     0.12100
H1211       H  0.41591933  0.15679132  0.77539134     0.08700
H1212       H  0.44972318  0.12708491  0.80792818     0.11400
C1213       C  0.85616286  0.61838430  0.76821509    -0.03200
C1214       C  0.86021021  0.59007230  0.75493316    -0.05800
C1215       C  0.87819892  0.56835806  0.76910769    -0.20900
C1216       C  0.89229550  0.57447456  0.79685448     0.24900
C1217       C  0.88737751  0.60267858  0.81047175    -0.18400
C1218       C  0.86957251  0.62438826  0.79618551    -0.08400
C1219       C  0.91101315  0.55044999  0.81102098    -0.18700
C1220       C  0.92990572  0.55471640  0.83452568    -0.23500
C1221       C  0.94663460  0.52954804  0.84897009     0.26900
C1222       C  0.95287844  0.53084391  0.87997295    -0.20200
C1223       C  0.96600325  0.50622569  0.89477594    -0.09900
C1224       C  0.97322412  0.48000394  0.87870173    -0.10400
C1225       C  0.96880117  0.47949150  0.84737234    -0.03400
C1226       C  0.95579283  0.50405026  0.83260027    -0.18500
H1227       H  0.84978994  0.58498822  0.73344888     0.10600
H1228       H  0.88128963  0.54675496  0.75824475     0.10700
H1229       H  0.89685406  0.60821797  0.83218731     0.10300
H1230       H  0.86643680  0.64610215  0.80682934     0.11500
H1231       H  0.90864552  0.52798362  0.80173464     0.11500
H1232       H  0.93220869  0.57673364  0.84471089     0.13500
H1233       H  0.94639185  0.55042534  0.89298276     0.10000
H1234       H  0.96913257  0.50710602  0.91895416     0.12100
H1235       H  0.97475521  0.45970286  0.83442175     0.08700
H1236       H  0.95259945  0.50280659  0.80847098     0.11400
C1237       C  0.85522555  0.21975060  0.78826759    -0.03200
C1238       C  0.88390700  0.21045060  0.79822562    -0.05800
C1239       C  0.90200817  0.22963675  0.81541915    -0.20900
C1240       C  0.89158353  0.25829799  0.82361354     0.24900
C1241       C  0.86298605  0.26781972  0.81332719    -0.18400
C1242       C  0.84514228  0.24881532  0.79553686    -0.08400
C1243       C  0.91192385  0.27844030  0.84101716    -0.18700
C1244       C  0.90164189  0.29970798  0.86005912    -0.23500
C1245       C  0.92115885  0.32271804  0.87483744     0.26900
C1246       C  0.90722705  0.34878228  0.88607192    -0.20200
C1247       C  0.92451540  0.37280551  0.89666173    -0.09900
C1248       C  0.95620344  0.37119996  0.89665229    -0.10400
C1249       C  0.97024679  0.34436891  0.88758211    -0.03400
C1250       C  0.95291366  0.32029238  0.87673385    -0.18500
H1251       H  0.89230933  0.18824532  0.79258467     0.10600
H1252       H  0.92414578  0.22198200  0.82255809     0.10700
H1253       H  0.85476625  0.29025480  0.81813770     0.10300
H1254       H  0.82376318  0.25704180  0.78704716     0.11500
H1255       H  0.93597755  0.27559265  0.83749817     0.11500
H1256       H  0.87743453  0.30161641  0.86359372     0.13500
H1257       H  0.88286678  0.35115157  0.88541643     0.10000
H1258       H  0.91314045  0.39311867  0.90400735     0.12100
H1259       H  0.99465372  0.34255689  0.88756764     0.08700
H1260       H  0.96461513  0.30024589  0.86939939     0.11400
C1261       C  0.85689166  0.22078897  0.21238340    -0.03200
C1262       C  0.88443315  0.21098136  0.20016936    -0.05800
C1263       C  0.90248648  0.23052171  0.18338705    -0.20900
C1264       C  0.89328923  0.26026569  0.17803084     0.24900
C1265       C  0.86572086  0.27027341  0.19046669    -0.18400
C1266       C  0.84771449  0.25068018  0.20757148    -0.08400
C1267       C  0.91374435  0.28041163  0.16060895    -0.18700
C1268       C  0.90366738  0.30348290  0.14357974    -0.23500
C1269       C  0.92333717  0.32502199  0.12668050     0.26900
C1270       C  0.90937966  0.35008291  0.11329285    -0.20200
C1271       C  0.92651116  0.37258071  0.09958981    -0.09900
C1272       C  0.95818411  0.37067832  0.09875633    -0.10400
C1273       C  0.97229322  0.34484649  0.11040170    -0.03400
C1274       C  0.95507482  0.32218301  0.12428993    -0.18500
H1275       H  0.89199521  0.18803992  0.20372311     0.10600
H1276       H  0.92367161  0.22229601  0.17436206     0.10700
H1277       H  0.85838354  0.29335144  0.18766699     0.10300
H1278       H  0.82694130  0.25896372  0.21737724     0.11500
H1279       H  0.93765286  0.27525422  0.16147590     0.11500
H1280       H  0.87945067  0.30727886  0.14229583     0.13500
H1281       H  0.88508239  0.35287495  0.11437135     0.10000
H1282       H  0.91504209  0.39222429  0.09064401     0.12100
H1283       H  0.99669099  0.34293728  0.11016647     0.08700
H1284       H  0.96694380  0.30308123  0.13363866     0.11400
C1285       C  0.86372145  0.62300080  0.22371088    -0.03200
C1286       C  0.86573564  0.59419112  0.23642148    -0.05800
C1287       C  0.88210924  0.57154603  0.22177664    -0.20900
C1288       C  0.89662550  0.57724464  0.19414795     0.24900
C1289       C  0.89383644  0.60611253  0.18125304    -0.18400
C1290       C  0.87764635  0.62866794  0.19596900    -0.08400
C1291       C  0.91407158  0.55239264  0.17970894    -0.18700
C1292       C  0.93101269  0.55537512  0.15458873    -0.23500
C1293       C  0.94715024  0.52973020  0.14034641     0.26900
C1294       C  0.95217949  0.53014214  0.10909527    -0.20200
C1295       C  0.96542593  0.50541635  0.09465172    -0.09900
C1296       C  0.97401822  0.47994289  0.11132232    -0.10400
C1297       C  0.97067217  0.48031229  0.14278982    -0.03400
C1298       C  0.95748625  0.50495021  0.15719320    -0.18500
H1299       H  0.85501340  0.58941117  0.25780110     0.10600
H1300       H  0.88364988  0.54954657  0.23220816     0.10700
H1301       H  0.90396574  0.61176344  0.15991272     0.10300
H1302       H  0.87627243  0.65084096  0.18586534     0.11500
H1303       H  0.91238610  0.53038811  0.19020669     0.11500
H1304       H  0.93227840  0.57672901  0.14293698     0.13500
H1305       H  0.94480106  0.54917252  0.09567807     0.10000
H1306       H  0.96764575  0.50561633  0.07036621     0.12100
H1307       H  0.97764331  0.46111681  0.15618847     0.08700
H1308       H  0.95526240  0.50436952  0.18144378     0.11400
C1309       C  0.78837454  0.70590424  0.21914455    -0.03200
C1310       C  0.79774225  0.72951062  0.20037871    -0.05800
C1311       C  0.77705368  0.74406190  0.18151056    -0.20900
C1312       C  0.74651040  0.73572036  0.18155164     0.24900
C1313       C  0.73714706  0.71199422  0.20047958    -0.18400
C1314       C  0.75797234  0.69718372  0.21909725    -0.08400
C1315       C  0.72510047  0.75192440  0.16138159    -0.18700
C1316       C  0.69602015  0.75635824  0.16890087    -0.23500
C1317       C  0.67378732  0.77340817  0.15037470     0.26900
C1318       C  0.64775926  0.78406504  0.16478079    -0.20200
C1319       C  0.62474677  0.79788476  0.14840100    -0.09900
C1320       C  0.62687339  0.80106583  0.11699092    -0.10400
C1321       C  0.65344906  0.79166093  0.10248948    -0.03400
C1322       C  0.67676095  0.77782594  0.11903697    -0.18500
H1323       H  0.82126688  0.73617591  0.19987946     0.10600
H1324       H  0.78486970  0.76204025  0.16699879     0.10700
H1325       H  0.71393962  0.70438090  0.20044197     0.10300
H1326       H  0.75054457  0.67865460  0.23310193     0.11500
H1327       H  0.73408166  0.76217745  0.14109933     0.11500
H1328       H  0.68824510  0.74828417  0.19064497     0.13500
H1329       H  0.64491357  0.78116872  0.18884272     0.10000
H1330       H  0.60472602  0.80536215  0.16025971     0.12100
H1331       H  0.65554474  0.79368051  0.07827609     0.08700
H1332       H  0.69632012  0.76954279  0.10704138     0.11400
C1333       C  0.51591770  0.79763443  0.10545485    -0.03200
C1334       C  0.49324640  0.81699581  0.11614818    -0.05800
C1335       C  0.46857847  0.80543845  0.13217438    -0.20900
C1336       C  0.46625590  0.77440312  0.13795640     0.24900
C1337       C  0.48785646  0.75490556  0.12533449    -0.18400
C1338       C  0.51242818  0.76642743  0.10936682    -0.08400
C1339       C  0.44121623  0.76307932  0.15723428    -0.18700
C1340       C  0.44343612  0.73766046  0.17385831    -0.23500
C1341       C  0.41888702  0.72551959  0.19335518     0.26900
C1342       C  0.42596598  0.70278315  0.21436326    -0.20200
C1343       C  0.40333695  0.68938768  0.23183753    -0.09900
C1344       C  0.37322750  0.69853809  0.22855530    -0.10400
C1345       C  0.36607233  0.72144991  0.20800473    -0.03400
C1346       C  0.38857426  0.73478090  0.19049638    -0.18500
H1347       H  0.49545528  0.84113703  0.11358090     0.10600
H1348       H  0.45195099  0.82090277  0.14118320     0.10700
H1349       H  0.48611136  0.73076915  0.12804889     0.10300
H1350       H  0.52934810  0.75097317  0.10088727     0.11500
H1351       H  0.42127207  0.77715598  0.15898237     0.11500
H1352       H  0.46464105  0.72534643  0.17392416     0.13500
H1353       H  0.44904486  0.69503198  0.21693215     0.10000
H1354       H  0.40915395  0.67148555  0.24738696     0.12100
H1355       H  0.34278736  0.72837198  0.20489652     0.08700
H1356       H  0.38179043  0.75152497  0.17416211     0.11400
C1357       C  0.95241384  0.83250617  0.44757133    -0.03200
C1358       C  0.92075373  0.83002530  0.44728606    -0.05800
C1359       C  0.90601315  0.81461368  0.42418363    -0.20900
C1360       C  0.92247701  0.80116118  0.40081511     0.24900
C1361       C  0.95404588  0.80548109  0.39989192    -0.18400
C1362       C  0.96884622  0.82103414  0.42310878    -0.08400
C1363       C  0.90566252  0.78231333  0.37867928    -0.18700
C1364       C  0.91854520  0.76148814  0.36075812    -0.23500
C1365       C  0.90067884  0.74199867  0.34020370     0.26900
C1366       C  0.91354707  0.73295144  0.31283938    -0.20200
C1367       C  0.89708681  0.71540051  0.29254924    -0.09900
C1368       C  0.86765697  0.70590871  0.29950728    -0.10400
C1369       C  0.85524120  0.71365038  0.32752226    -0.03400
C1370       C  0.87150600  0.73174970  0.34762818    -0.18500
H1371       H  0.90747174  0.83895201  0.46571039     0.10600
H1372       H  0.88168992  0.81212485  0.42528258     0.10700
H1373       H  0.96753803  0.79646804  0.38174674     0.10300
H1374       H  0.99325645  0.82263830  0.42277531     0.11500
H1375       H  0.88125605  0.78489781  0.37806790     0.11500
H1376       H  0.94288611  0.75877614  0.36044895     0.13500
H1377       H  0.93610369  0.74017461  0.30679528     0.10000
H1378       H  0.90712439  0.70963321  0.27107883     0.12100
H1379       H  0.83282663  0.70607710  0.33359908     0.08700
H1380       H  0.86134949  0.73742253  0.36903967     0.11400
C1381       C  0.96406232  0.82133555  0.55769685    -0.03200
C1382       C  0.95795996  0.83691749  0.58453964    -0.05800
C1383       C  0.94434201  0.82198480  0.60888635    -0.20900
C1384       C  0.93637418  0.79143483  0.60658138     0.24900
C1385       C  0.94442722  0.77553305  0.58047986    -0.18400
C1386       C  0.95812464  0.79028136  0.55642814    -0.08400
C1387       C  0.91975861  0.77632645  0.63143110    -0.18700
C1388       C  0.89958941  0.75419302  0.62604695    -0.23500
C1389       C  0.88323093  0.73718117  0.64979299     0.26900
C1390       C  0.85673422  0.72161013  0.64189195    -0.20200
C1391       C  0.84149020  0.70397331  0.66308214    -0.09900
C1392       C  0.85262595  0.70146170  0.69252703    -0.10400
C1393       C  0.87917784  0.71675136  0.70048151    -0.03400
C1394       C  0.89438045  0.73447377  0.67935994    -0.18500
H1395       H  0.96240790  0.86082173  0.58617366     0.10600
H1396       H  0.93891083  0.83456659  0.62905140     0.10700
H1397       H  0.93996006  0.75167175  0.57846688     0.10300
H1398       H  0.96340981  0.77747416  0.53636034     0.11500
H1399       H  0.92326366  0.78448657  0.65419371     0.11500
H1400       H  0.89417181  0.74854245  0.60286204     0.13500
H1401       H  0.84785696  0.72302141  0.61918466     0.10000
H1402       H  0.82117682  0.69211932  0.65648930     0.12100
H1403       H  0.88815089  0.71486788  0.72312172     0.08700
H1404       H  0.91515890  0.74534388  0.68610403     0.11400
C1405       C  0.85035479  0.14754898  0.70276322    -0.03200
C1406       C  0.84459828  0.15564975  0.67282441    -0.05800
C1407       C  0.86001844  0.14121577  0.64936310    -0.20900
C1408       C  0.88153932  0.11860231  0.65544348     0.24900
C1409       C  0.88698841  0.11047577  0.68562376    -0.18400
C1410       C  0.87161214  0.12492156  0.70897975    -0.08400
C1411       C  0.89666456  0.10321914  0.62969499    -0.18700
C1412       C  0.92224027  0.08668084  0.63205446    -0.23500
C1413       C  0.93646857  0.07110933  0.60592984     0.26900
C1414       C  0.96758466  0.06458070  0.60658000    -0.20200
C1415       C  0.98177905  0.05103606  0.58180859    -0.09900
C1416       C  0.96503043  0.04369308  0.55596983    -0.10400
C1417       C  0.93367540  0.04879432  0.55597552    -0.03400
C1418       C  0.91952895  0.06220678  0.58064504    -0.18500
H1419       H  0.82823692  0.17307534  0.66768619     0.10600
H1420       H  0.85514746  0.14776128  0.62635621     0.10700
H1421       H  0.90259075  0.09264277  0.69142144     0.10300
H1422       H  0.87614530  0.11834690  0.73205284     0.11500
H1423       H  0.88660590  0.10655577  0.60763841     0.11500
H1424       H  0.93409281  0.08549615  0.65341414     0.13500
H1425       H  0.98109699  0.07074609  0.62597044     0.10000
H1426       H  0.00597466  0.04740050  0.58237053     0.12100
H1427       H  0.92010964  0.04274673  0.53658082     0.08700
H1428       H  0.89532734  0.06549139  0.57974947     0.11400
C1429       C  0.85673683  0.14196810  0.29181839    -0.03200
C1430       C  0.87030375  0.11473811  0.28316143    -0.05800
C1431       C  0.88717023  0.09785933  0.30372930    -0.20900
C1432       C  0.89148601  0.10817002  0.33323523     0.24900
C1433       C  0.87745229  0.13525768  0.34216682    -0.18400
C1434       C  0.86003593  0.15193549  0.32162019    -0.08400
C1435       C  0.91009054  0.08966519  0.35418337    -0.18700
C1436       C  0.92733346  0.10183258  0.37602885    -0.23500
C1437       C  0.94582798  0.08433987  0.39817012     0.26900
C1438       C  0.96014964  0.10036711  0.42136964    -0.20200
C1439       C  0.97492418  0.08527730  0.44473450    -0.09900
C1440       C  0.97590342  0.05368832  0.44547477    -0.10400
C1441       C  0.96359796  0.03752238  0.42127384    -0.03400
C1442       C  0.94862039  0.05264823  0.39782251    -0.18500
H1443       H  0.86798734  0.10665854  0.26026563     0.10600
H1444       H  0.89742001  0.07696111  0.29638808     0.10700
H1445       H  0.87955536  0.14335454  0.36504871     0.10300
H1446       H  0.84940143  0.17268004  0.32881947     0.11500
H1447       H  0.91024269  0.06559794  0.35038394     0.11500
H1448       H  0.92762369  0.12618672  0.37819503     0.13500
H1449       H  0.95886513  0.12471214  0.42212903     0.10000
H1450       H  0.98450252  0.09828511  0.46302319     0.12100
H1451       H  0.96401815  0.01314333  0.42138639     0.08700
H1452       H  0.93861411  0.03919794  0.38022003     0.11400
C1453       C  0.17684680  0.81297221  0.55893027    -0.03200
C1454       C  0.19105230  0.83121149  0.58049662    -0.05800
C1455       C  0.20719621  0.81808500  0.60431725    -0.20900
C1456       C  0.20956604  0.78661872  0.60674901     0.24900
C1457       C  0.19332431  0.76850881  0.58650228    -0.18400
C1458       C  0.17718636  0.78156535  0.56287967    -0.08400
C1459       C  0.22925088  0.77329679  0.63036694    -0.18700
C1460       C  0.24283044  0.74625995  0.62711730    -0.23500
C1461       C  0.26258111  0.73212814  0.65027416     0.26900
C1462       C  0.28106633  0.70771856  0.64191522    -0.20200
C1463       C  0.29892031  0.69287809  0.66332622    -0.09900
C1464       C  0.29835844  0.70217278  0.69342650    -0.10400
C1465       C  0.28026937  0.72662767  0.70183637    -0.03400
C1466       C  0.26240738  0.74141194  0.68056998    -0.18500
H1467       H  0.19107529  0.85546301  0.57801418     0.10600
H1468       H  0.21899051  0.83251035  0.62007109     0.10700
H1469       H  0.19331848  0.74423912  0.58855707     0.10300
H1470       H  0.16572411  0.76700609  0.54700049     0.11500
H1471       H  0.23398809  0.78707765  0.64993483     0.11500
H1472       H  0.24014415  0.73410304  0.60608800     0.13500
H1473       H  0.28151081  0.69997798  0.61879544     0.10000
H1474       H  0.31286218  0.67401907  0.65654355     0.12100
H1475       H  0.27950393  0.73382944  0.72513271     0.08700
H1476       H  0.24797063  0.75943434  0.68830744     0.11400
C1477       C  0.28953847  0.70310364  0.30272165    -0.03200
C1478       C  0.27802282  0.73068539  0.29236459    -0.05800
C1479       C  0.26089177  0.74907345  0.31127876    -0.20900
C1480       C  0.25455809  0.74019781  0.34091608     0.24900
C1481       C  0.26654075  0.71268394  0.35152484    -0.18400
C1482       C  0.28394617  0.69434155  0.33255987    -0.08400
C1483       C  0.23634965  0.76080788  0.36018286    -0.18700
C1484       C  0.21990091  0.75129546  0.38383723    -0.23500
C1485       C  0.20181121  0.77127066  0.40400148     0.26900
C1486       C  0.18351208  0.75749139  0.42577923    -0.20200
C1487       C  0.16874253  0.77461656  0.44758001    -0.09900
C1488       C  0.17190981  0.80605775  0.44826572    -0.10400
C1489       C  0.18856355  0.82024440  0.42548562    -0.03400
C1490       C  0.20352269  0.80303923  0.40356219    -0.18500
H1491       H  0.28230534  0.73795852  0.26947207     0.10600
H1492       H  0.25230565  0.77023500  0.30261265     0.10700
H1493       H  0.26313812  0.70554942  0.37456238     0.10300
H1494       H  0.29335495  0.67358379  0.34127644     0.11500
H1495       H  0.23562229  0.78427506  0.35356970     0.11500
H1496       H  0.21928478  0.72735549  0.38870965     0.13500
H1497       H  0.18152777  0.73320161  0.42668461     0.10000
H1498       H  0.15601835  0.76315111  0.46496426     0.12100
H1499       H  0.19163049  0.84442634  0.42581495     0.08700
H1500       H  0.21739168  0.81479811  0.38741687     0.11400
loop_ 
_geom_bond_atom_site_label_1 
_geom_bond_atom_site_label_2 
_geom_bond_distance 
_geom_bond_site_symmetry_2 
_ccdc_geom_bond_type 
C1            C2   1.405       .  A
C1            C6   1.397       .  A
C1         C1453   1.483       .  S
C2            C3   1.414       .  A
C2            H7   1.083       .  S
C3            C4   1.415       .  A
C3          C276   1.489       .  S
C4            C5   1.407       .  A
C4            H8   1.083       .  S
C5            C6   1.396       .  A
C5         C1488   1.482       .  S
C6            H9   1.085       .  S
C10          C11   1.399       .  A
C10          C15   1.406   1_655  A
C10        C1440   1.484       .  S
C11          C12   1.399       .  A
C11          H16   1.084       .  S
C12          C13   1.406   1_655  A
C12        C1416   1.486       .  S
C13          C14   1.413   1_545  A
C13          H17   1.083   1_545  S
C14          C15   1.413   1_565  A
C14         C275   1.489       .  S
C15          H18   1.083       .  S
C19          C20   1.407       .  A
C19          C24   1.398       .  A
C19        C1357   1.486       .  S
C20          C21   1.415   1_655  A
C20          H25   1.083       .  S
C21          C22   1.414   1_455  A
C21         C277   1.490       .  S
C22          C23   1.407       .  A
C22          H26   1.083   1_655  S
C23          C24   1.399       .  A
C23        C1381   1.487       .  S
C24          H27   1.084       .  S
C28          C29   1.405       .  A
C28          C33   1.398       .  A
C28        C1333   1.485       .  S
C29          C30   1.414       .  A
C29          H34   1.083       .  S
C30          C31   1.413       .  A
C30         C291   1.488       .  S
C31          C32   1.407       .  A
C31          H35   1.083       .  S
C32          C33   1.400       .  A
C32        C1320   1.485       .  S
C33          H36   1.084       .  S
C37          C38   1.397       .  A
C37          C42   1.404   1_655  A
C37        C1296   1.482       .  S
C38          C39   1.399       .  A
C38          H43   1.085       .  S
C39          C40   1.410       .  A
C39        C1272   1.486       .  S
C40          C41   1.416   1_655  A
C40          H44   1.083   1_655  S
C41          C42   1.413       .  A
C41         C304   1.490       .  S
C42          H45   1.083       .  S
C46          C47   1.405       .  A
C46          C51   1.400       .  A
C46        C1248   1.483       .  S
C47          C48   1.412   1_655  A
C47          H52   1.083   1_655  S
C48          C49   1.410       .  A
C48         C305   1.484       .  S
C49          C50   1.405   1_455  A
C49          H53   1.083       .  S
C50          C51   1.400       .  A
C50        C1224   1.481       .  S
C51          H54   1.084       .  S
C55          C56   1.406   1_545  A
C55          C60   1.397       .  A
C55        C1165   1.481       .  S
C56          C57   1.413       .  A
C56          H61   1.083       .  S
C57          C58   1.415       .  A
C57         C292   1.489       .  S
C58          C59   1.406   1_565  A
C58          H62   1.083       .  S
C59          C60   1.397       .  A
C59        C1189   1.482       .  S
C60          H63   1.085       .  S
C64          C65   1.396       .  A
C64          C69   1.403       .  A
C64        C1117   1.478       .  S
C65          C66   1.398       .  A
C65          H70   1.085       .  S
C66          C67   1.409       .  A
C66        C1152   1.485       .  S
C67          C68   1.416       .  A
C67          H71   1.083       .  S
C68          C69   1.412       .  A
C68         C303   1.489       .  S
C69          H72   1.083       .  S
C73          C74   1.396       .  A
C73          C78   1.405       .  A
C73        C1069   1.480       .  S
C74          C75   1.397       .  A
C74          H79   1.085       .  S
C75          C76   1.406       .  A
C75        C1093   1.485       .  S
C76          C77   1.415       .  A
C76          H80   1.083       .  S
C77          C78   1.414       .  A
C77         C290   1.488       .  S
C78          H81   1.083       .  S
C82          C83   1.407       .  A
C82          C87   1.399       .  A
C82        C1056   1.487       .  S
C83          C84   1.415       .  A
C83          H88   1.083       .  S
C84          C85   1.413       .  A
C84         C333   1.490       .  S
C85          C86   1.405       .  A
C85          H89   1.083       .  S
C86          C87   1.398       .  A
C86        C1021   1.481       .  S
C87          H90   1.085       .  S
C91          C92   1.413       .  A
C91          C96   1.416       .  A
C91         C960   1.483       .  S
C92          C93   1.414       .  A
C92        C1045   1.487       .  S
C93          C94   1.413       .  A
C93         C901   1.487       .  S
C94          C95   1.415       .  A
C94         C997   1.485       .  S
C95          C96   1.415       .  A
C95         C936   1.489       .  S
C96         C973   1.490       .  S
C97          C98   1.394       .  A
C97         C102   1.402       .  A
C97         C888   1.475       .  S
C98          C99   1.396       .  A
C98         H103   1.085       .  S
C99         C100   1.408       .  A
C99        C1008   1.482       .  S
C100        C101   1.416       .  A
C100        H104   1.083       .  S
C101        C102   1.414       .  A
C101        C348   1.488       .  S
C102        H105   1.083       .  S
C106        C107   1.411       .  A
C106        C111   1.414       .  A
C106        C853   1.479       .  S
C107        C108   1.412       .  A
C107       C1477   1.490       .  S
C108        C109   1.413       .  A
C108        C877   1.483       .  S
C109        C110   1.415       .  A
C109       C1344   1.483       .  S
C110        C111   1.414       .  A
C110        C829   1.489       .  S
C111        C805   1.484       .  S
C112        C113   1.415       .  A
C112        C117   1.411       .  A
C112       C1261   1.491       .  S
C113        C114   1.417       .  A
C113       C1032   1.489       .  S
C114        C115   1.415       .  A
C114       C1429   1.489       .  S
C115        C116   1.413       .  A
C115        C781   1.484       .  S
C116        C117   1.412       .  A
C116        C733   1.488       .  S
C117        C757   1.481       .  S
C118        C119   1.406       .  A
C118        C123   1.400       .  A
C118        C792   1.487       .  S
C119        C120   1.413       .  A
C119        H124   1.083       .  S
C120        C121   1.413       .  A
C120        C346   1.489       .  S
C121        C122   1.408       .  A
C121        H125   1.083       .  S
C122        C123   1.400       .  A
C122        C709   1.485       .  S
C123        H126   1.084       .  S
C127        C128   1.413       .  A
C127        C132   1.412       .  A
C127       C1309   1.484       .  S
C128        C129   1.419       .  A
C128        C720   1.487       .  S
C129        C130   1.417       .  A
C129       C1368   1.491       .  S
C130        C131   1.416       .  A
C130        C685   1.488       .  S
C131        C132   1.411       .  A
C131       C1285   1.485       .  S
C132        C672   1.489       .  S
C133        C134   1.407       .  A
C133        C138   1.400       .  A
C133        C696   1.486       .  S
C134        C135   1.413       .  A
C134        H139   1.083       .  S
C135        C136   1.410       .  A
C135        C332   1.485       .  S
C136        C137   1.404       .  A
C136        H140   1.083       .  S
C137        C138   1.399       .  A
C137        C864   1.481       .  S
C138        H141   1.084       .  S
C142        C143   1.407       .  A
C142        C147   1.399   1_556  A
C142        C637   1.485       .  S
C143        C144   1.414   1_556  A
C143        H148   1.083       .  S
C144        C145   1.414       .  A
C144        C319   1.491       .  S
C145        C146   1.407       .  A
C145        H149   1.083       .  S
C146        C147   1.399       .  A
C146        C984   1.487       .  S
C147        H150   1.084       .  S
C151        C152   1.409       .  A
C151        C156   1.411       .  A
C151       C1200   1.483       .  S
C152        C153   1.413       .  A
C152        C648   1.483       .  S
C153        C154   1.418       .  A
C153       C1128   1.488       .  S
C154        C155   1.417       .  A
C154        C589   1.491       .  S
C155        C156   1.414       .  A
C155        C576   1.489       .  S
C156        C624   1.484       .  S
C157        C158   1.397       .  A
C157        C162   1.406       .  A
C157        C552   1.479       .  S
C158        C159   1.398       .  A
C158        H163   1.085       .  S
C159        C160   1.406       .  A
C159        C613   1.482       .  S
C160        C161   1.414       .  A
C160        H164   1.083       .  S
C161        C162   1.413       .  A
C161        C345   1.489       .  S
C162        H165   1.083       .  S
C166        C167   1.415       .  A
C166        C171   1.417       .  A
C166       C1141   1.492       .  S
C167        C168   1.412       .  A
C167        C517   1.485       .  S
C168        C169   1.410       .  A
C168       C1464   1.479       .  S
C169        C170   1.410       .  A
C169        C541   1.487       .  S
C170        C171   1.414       .  A
C170       C1080   1.480       .  S
C171        C493   1.488       .  S
C172        C173   1.408       .  A
C172        C177   1.398       .  A
C172        C469   1.485       .  S
C173        C174   1.415       .  A
C173        H178   1.083       .  S
C174        C175   1.415       .  A
C174        C334   1.493       .  S
C175        C176   1.407       .  A
C175        H179   1.083       .  S
C176        C177   1.398       .  A
C176        C528   1.486       .  S
C177        H180   1.084       .  S
C181        C182   1.400       .  A
C181        C186   1.408       .  A
C181        C600   1.484       .  S
C182        C183   1.397       .  A
C182        H187   1.085       .  S
C183        C184   1.403       .  A
C183        C445   1.478       .  S
C184        C185   1.413       .  A
C184        H188   1.083       .  S
C185        C186   1.414       .  A
C185        C331   1.488       .  S
C186        H189   1.083       .  S
C190        C191   1.415       .  A
C190        C195   1.415       .  A
C190       C1405   1.484       .  S
C191        C192   1.414       .  A
C191        C432   1.491       .  S
C192        C193   1.415       .  A
C192       C1176   1.486       .  S
C193        C194   1.415       .  A
C193        C397   1.484       .  S
C194        C195   1.414       .  A
C194       C1237   1.492       .  S
C195        C456   1.487       .  S
C196        C197   1.406       .  A
C196        C201   1.399       .  A
C196        C373   1.486       .  S
C197        C198   1.415       .  A
C197        H202   1.083       .  S
C198        C199   1.412       .  A
C198        C347   1.486       .  S
C199        C200   1.404       .  A
C199        H203   1.083       .  S
C200        C201   1.397       .  A
C200        C421   1.479       .  S
C201        H204   1.084       .  S
C205        C206   1.413       .  A
C205        C210   1.411       .  A
C205       C1392   1.485       .  S
C206        C207   1.417       .  A
C206        C480   1.491       .  S
C207        C208   1.417       .  A
C207       C1213   1.484       .  S
C208        C209   1.416       .  A
C208        C349   1.494       .  S
C209        C210   1.412       .  A
C209       C1104   1.483       .  S
C210        C384   1.485       .  S
C211        C212   1.406       .  A
C211        C216   1.399       .  A
C211        C840   1.483       .  S
C212        C213   1.413       .  A
C212        H217   1.083       .  S
C213        C214   1.412   1_554  A
C213        C318   1.488       .  S
C214        C215   1.406       .  A
C214        H218   1.083       .  S
C215        C216   1.399   1_556  A
C215        C504   1.484       .  S
C216        H219   1.084       .  S
C220        C221   1.407       .  A
C220        C225   1.398   1_556  A
C220        C408   1.487       .  S
C221        C222   1.415   1_556  A
C221        H226   1.083       .  S
C222        C223   1.415       .  A
C222        C317   1.489       .  S
C223        C224   1.404       .  A
C223        H227   1.083       .  S
C224        C225   1.396       .  A
C224        C768   1.479       .  S
C225        H228   1.085       .  S
C229        C230   1.399       .  A
C229        C234   1.405       .  A
C229        C661   1.485       .  S
C230        C231   1.401   1_554  A
C230        H235   1.084       .  S
C231        C232   1.409       .  A
C231        C360   1.490       .  S
C232        C233   1.415   1_556  A
C232        H236   1.083       .  S
C233        C234   1.413       .  A
C233        C320   1.490       .  S
C234        H237   1.083       .  S
C238        C239   1.406   1_545  A
C238        C243   1.397       .  A
C238        C744   1.481       .  S
C239        C240   1.415       .  A
C239        H244   1.083       .  S
C240        C241   1.413       .  A
C240        C289   1.487       .  S
C241        C242   1.405   1_565  A
C241        H245   1.083       .  S
C242        C243   1.397       .  A
C242        C925   1.480       .  S
C243        H246   1.085       .  S
C247        C248   1.400       .  A
C247        C252   1.408       .  A
C247        C949   1.489       .  S
C248        C249   1.399       .  A
C248        H253   1.084       .  S
C249        C250   1.406       .  A
C249        C816   1.484       .  S
C250        C251   1.412       .  A
C250        H254   1.083       .  S
C251        C252   1.415       .  A
C251        C306   1.489       .  S
C252        H255   1.083       .  S
C256        C257   1.405       .  A
C256        C261   1.397       .  A
C256        C912   1.480       .  S
C257        C258   1.414   1_545  A
C257        H262   1.083   1_545  S
C258        C259   1.415   1_565  A
C258        C278   1.489       .  S
C259        C260   1.406       .  A
C259        H263   1.083   1_545  S
C260        C261   1.396       .  A
C260        C565   1.480       .  S
C261        H264   1.085       .  S
O265        V273   1.907       .  S
O265        C275   1.266       .  A
O266        V273   1.909       .  S
O266        C276   1.266       .  A
O267        V273   1.907       .  S
O267        C277   1.266       .  A
O268        V273   1.906       .  S
O268        C278   1.266       .  A
O269        V274   1.907       .  S
O269        C278   1.266       .  A
O270        V274   1.907       .  S
O270        C277   1.267       .  A
O271        V274   1.905       .  S
O271        C276   1.266       .  A
O272        V274   1.905       .  S
O272        C275   1.266       .  A
V273        V274   2.085       .  T
O279        V287   1.907       .  S
O279        C289   1.267       .  A
O280        V287   1.908   1_556  S
O280        C290   1.267       .  A
O281        V287   1.902       .  S
O281        C291   1.265       .  A
O282        V287   1.903   1_556  S
O282        C292   1.265       .  A
O283        V288   1.911   1_556  S
O283        C292   1.268       .  A
O284        V288   1.910       .  S
O284        C291   1.267       .  A
O285        V288   1.903   1_556  S
O285        C290   1.266       .  A
O286        V288   1.904       .  S
O286        C289   1.266       .  A
V287        V288   2.085       .  T
O293        V301   1.908       .  S
O293        C303   1.268       .  A
O294        V301   1.911   1_554  S
O294        C304   1.267       .  A
O295        V301   1.901       .  S
O295        C305   1.265       .  A
O296        V301   1.903   1_554  S
O296        C306   1.265       .  A
O297        V302   1.910   1_554  S
O297        C306   1.268       .  A
O298        V302   1.907       .  S
O298        C305   1.267       .  A
O299        V302   1.905   1_554  S
O299        C304   1.267       .  A
O300        V302   1.907       .  S
O300        C303   1.265       .  A
V301        V302   2.085       .  T
O307        V315   1.905       .  S
O307        C317   1.266       .  A
O308        V315   1.904       .  S
O308        C318   1.266       .  A
O309        V315   1.907       .  S
O309        C319   1.267       .  A
O310        V315   1.906       .  S
O310        C320   1.267       .  A
O311        V316   1.909       .  S
O311        C320   1.266   1_556  A
O312        V316   1.910       .  S
O312        C319   1.267   1_556  A
O313        V316   1.907       .  S
O313        C318   1.267   1_556  A
O314        V316   1.908       .  S
O314        C317   1.267   1_556  A
V315        V316   2.084   1_554  T
O321        V329   1.902       .  S
O321        C331   1.266       .  A
O322        V329   1.902       .  S
O322        C332   1.265       .  A
O323        V329   1.910       .  S
O323        C333   1.267       .  A
O324        V329   1.912       .  S
O324        C334   1.268       .  A
O325        V330   1.907       .  S
O325        C334   1.266       .  A
O326        V330   1.905       .  S
O326        C333   1.266       .  A
O327        V330   1.905       .  S
O327        C332   1.266       .  A
O328        V330   1.909       .  S
O328        C331   1.267       .  A
V329        V330   2.085       .  T
O335        V343   1.910       .  S
O335        C345   1.267       .  A
O336        V343   1.911       .  S
O336        C346   1.267       .  A
O337        V343   1.901       .  S
O337        C347   1.264       .  A
O338        V343   1.901       .  S
O338        C348   1.265       .  A
O339        V344   1.911       .  S
O339        C348   1.267       .  A
O340        V344   1.908       .  S
O340        C347   1.267       .  A
O341        V344   1.902       .  S
O341        C346   1.265       .  A
O342        V344   1.903       .  S
O342        C345   1.265       .  A
V343        V344   2.085       .  T
C349        C350   1.405       .  A
C349        C354   1.403       .  A
C350        C351   1.398       .  A
C350        H363   1.083       .  S
C351        C352   1.403       .  A
C351        H364   1.083       .  S
C352        C353   1.411       .  A
C352        C355   1.491       .  S
C353        C354   1.401       .  A
C353        H365   1.082       .  S
C354        H366   1.083       .  S
C355        C356   1.348       .  D
C355        H367   1.084       .  S
C356        C357   1.493       .  S
C356        H368   1.086       .  S
C357        C358   1.402       .  A
C357        C362   1.412       .  A
C358        C359   1.394       .  A
C358        H369   1.083       .  S
C359        C360   1.406       .  A
C359        H370   1.083       .  S
C360        C361   1.406       .  A
C361        C362   1.407       .  A
C361        H371   1.083       .  S
C362        H372   1.080       .  S
C373        C374   1.405       .  A
C373        C378   1.404       .  A
C374        C375   1.394       .  A
C374        H387   1.083       .  S
C375        C376   1.402       .  A
C375        H388   1.084       .  S
C376        C377   1.412       .  A
C376        C379   1.490       .  S
C377        C378   1.405       .  A
C377        H389   1.081       .  S
C378        H390   1.083       .  S
C379        C380   1.345       .  D
C379        H391   1.086       .  S
C380        C381   1.488       .  S
C380        H392   1.085       .  S
C381        C382   1.402       .  A
C381        C386   1.411       .  A
C382        C383   1.396       .  A
C382        H393   1.083       .  S
C383        C384   1.402       .  A
C383        H394   1.083       .  S
C384        C385   1.402       .  A
C385        C386   1.403       .  A
C385        H395   1.083       .  S
C386        H396   1.082       .  S
C397        C398   1.400       .  A
C397        C402   1.402       .  A
C398        C399   1.403       .  A
C398        H411   1.083       .  S
C399        C400   1.409       .  A
C399        H412   1.083       .  S
C400        C401   1.407       .  A
C400        C403   1.491       .  S
C401        C402   1.396       .  A
C401        H413   1.081       .  S
C402        H414   1.083       .  S
C403        C404   1.352       .  D
C403        H415   1.086       .  S
C404        C405   1.489       .  S
C404        H416   1.084       .  S
C405        C406   1.407       .  A
C405        C410   1.405       .  A
C406        C407   1.404       .  A
C406        H417   1.083       .  S
C407        C408   1.404       .  A
C407        H418   1.083       .  S
C408        C409   1.407       .  A
C409        C410   1.395       .  A
C409        H419   1.083       .  S
C410        H420   1.082       .  S
C421        C422   1.403       .  A
C421        C426   1.403   1_565  A
C422        C423   1.394   1_565  A
C422        H435   1.084       .  S
C423        C424   1.404       .  A
C423        H436   1.083       .  S
C424        C425   1.412       .  A
C424        C427   1.491       .  S
C425        C426   1.404       .  A
C425        H437   1.080       .  S
C426        H438   1.083       .  S
C427        C428   1.347       .  D
C427        H439   1.086       .  S
C428        C429   1.487       .  S
C428        H440   1.083       .  S
C429        C430   1.402       .  A
C429        C434   1.410       .  A
C430        C431   1.398       .  A
C430        H441   1.083       .  S
C431        C432   1.405       .  A
C431        H442   1.083       .  S
C432        C433   1.402       .  A
C433        C434   1.401       .  A
C433        H443   1.082       .  S
C434        H444   1.082       .  S
C445        C446   1.402       .  A
C445        C450   1.403       .  A
C446        C447   1.396   1_455  A
C446        H459   1.083       .  S
C447        C448   1.404       .  A
C447        H460   1.083       .  S
C448        C449   1.412       .  A
C448        C451   1.490       .  S
C449        C450   1.402   1_655  A
C449        H461   1.080       .  S
C450        H462   1.083       .  S
C451        C452   1.347       .  D
C451        H463   1.086       .  S
C452        C453   1.487       .  S
C452        H464   1.084       .  S
C453        C454   1.402       .  A
C453        C458   1.410       .  A
C454        C455   1.396       .  A
C454        H465   1.083       .  S
C455        C456   1.403       .  A
C455        H466   1.083       .  S
C456        C457   1.402       .  A
C457        C458   1.400       .  A
C457        H467   1.082       .  S
C458        H468   1.082       .  S
C469        C470   1.405       .  A
C469        C474   1.403   1_455  A
C470        C471   1.395       .  A
C470        H483   1.083       .  S
C471        C472   1.403   1_455  A
C471        H484   1.084       .  S
C472        C473   1.413       .  A
C472        C475   1.493       .  S
C473        C474   1.404       .  A
C473        H485   1.080       .  S
C474        H486   1.083       .  S
C475        C476   1.347       .  D
C475        H487   1.087       .  S
C476        C477   1.486       .  S
C476        H488   1.084       .  S
C477        C478   1.401       .  A
C477        C482   1.410       .  A
C478        C479   1.396       .  A
C478        H489   1.083       .  S
C479        C480   1.404       .  A
C479        H490   1.083       .  S
C480        C481   1.405       .  A
C481        C482   1.403       .  A
C481        H491   1.083       .  S
C482        H492   1.082       .  S
C493        C494   1.404       .  A
C493        C498   1.403       .  A
C494        C495   1.396       .  A
C494        H507   1.084       .  S
C495        C496   1.402       .  A
C495        H508   1.083       .  S
C496        C497   1.410       .  A
C496        C499   1.486       .  S
C497        C498   1.401       .  A
C497        H509   1.082       .  S
C498        H510   1.082       .  S
C499        C500   1.347       .  D
C499        H511   1.082       .  S
C500        C501   1.493       .  S
C500        H512   1.086       .  S
C501        C502   1.404       .  A
C501        C506   1.412       .  A
C502        C503   1.396       .  A
C502        H513   1.083       .  S
C503        C504   1.405       .  A
C503        H514   1.083       .  S
C504        C505   1.403       .  A
C505        C506   1.402       .  A
C505        H515   1.083       .  S
C506        H516   1.079       .  S
C517        C518   1.401       .  A
C517        C522   1.402       .  A
C518        C519   1.402       .  A
C518        H531   1.083       .  S
C519        C520   1.409       .  A
C519        H532   1.083       .  S
C520        C521   1.407       .  A
C520        C523   1.491       .  S
C521        C522   1.397       .  A
C521        H533   1.081       .  S
C522        H534   1.083       .  S
C523        C524   1.352       .  D
C523        H535   1.086       .  S
C524        C525   1.490       .  S
C524        H536   1.085       .  S
C525        C526   1.407       .  A
C525        C530   1.406       .  A
C526        C527   1.403       .  A
C526        H537   1.083       .  S
C527        C528   1.404       .  A
C527        H538   1.083       .  S
C528        C529   1.407       .  A
C529        C530   1.396       .  A
C529        H539   1.083       .  S
C530        H540   1.082       .  S
C541        C542   1.403       .  A
C541        C546   1.403       .  A
C542        C543   1.396       .  A
C542        H555   1.083       .  S
C543        C544   1.402       .  A
C543        H556   1.083       .  S
C544        C545   1.410       .  A
C544        C547   1.487       .  S
C545        C546   1.402       .  A
C545        H557   1.082       .  S
C546        H558   1.082       .  S
C547        C548   1.346       .  D
C547        H559   1.085       .  S
C548        C549   1.490       .  S
C548        H560   1.086       .  S
C549        C550   1.403       .  A
C549        C554   1.411       .  A
C550        C551   1.396       .  A
C550        H561   1.083       .  S
C551        C552   1.403       .  A
C551        H562   1.084       .  S
C552        C553   1.402       .  A
C553        C554   1.402       .  A
C553        H563   1.083       .  S
C554        H564   1.081       .  S
C565        C566   1.403       .  A
C565        C570   1.403       .  A
C566        C567   1.395       .  A
C566        H579   1.084       .  S
C567        C568   1.403       .  A
C567        H580   1.083       .  S
C568        C569   1.412       .  A
C568        C571   1.492       .  S
C569        C570   1.404       .  A
C569        H581   1.081       .  S
C570        H582   1.083       .  S
C571        C572   1.346       .  D
C571        H583   1.086       .  S
C572        C573   1.489       .  S
C572        H584   1.084       .  S
C573        C574   1.402       .  A
C573        C578   1.411       .  A
C574        C575   1.396       .  A
C574        H585   1.083       .  S
C575        C576   1.404       .  A
C575        H586   1.083       .  S
C576        C577   1.403       .  A
C577        C578   1.404       .  A
C577        H587   1.083       .  S
C578        H588   1.082       .  S
C589        C590   1.404       .  A
C589        C594   1.404       .  A
C590        C591   1.396       .  A
C590        H603   1.083       .  S
C591        C592   1.402       .  A
C591        H604   1.083       .  S
C592        C593   1.410       .  A
C592        C595   1.488       .  S
C593        C594   1.402       .  A
C593        H605   1.082       .  S
C594        H606   1.083       .  S
C595        C596   1.348       .  D
C595        H607   1.083       .  S
C596        C597   1.495       .  S
C596        H608   1.086       .  S
C597        C598   1.404       .  A
C597        C602   1.413       .  A
C598        C599   1.396       .  A
C598        H609   1.083       .  S
C599        C600   1.404       .  A
C599        H610   1.083       .  S
C600        C601   1.403       .  A
C601        C602   1.404       .  A
C601        H611   1.083       .  S
C602        H612   1.079       .  S
C613        C614   1.403   1_565  A
C613        C618   1.405       .  A
C614        C615   1.402       .  A
C614        H627   1.083       .  S
C615        C616   1.406       .  A
C615        H628   1.083       .  S
C616        C617   1.406       .  A
C616        C619   1.487       .  S
C617        C618   1.396   1_545  A
C617        H629   1.082       .  S
C618        H630   1.083       .  S
C619        C620   1.351       .  D
C619        H631   1.084       .  S
C620        C621   1.490       .  S
C620        H632   1.085       .  S
C621        C622   1.408       .  A
C621        C626   1.407       .  A
C622        C623   1.401       .  A
C622        H633   1.083       .  S
C623        C624   1.401       .  A
C623        H634   1.083       .  S
C624        C625   1.402       .  A
C625        C626   1.396       .  A
C625        H635   1.083       .  S
C626        H636   1.080       .  S
C637        C638   1.404       .  A
C637        C642   1.406       .  A
C638        C639   1.404       .  A
C638        H651   1.083       .  S
C639        C640   1.407       .  A
C639        H652   1.083       .  S
C640        C641   1.405       .  A
C640        C643   1.488       .  S
C641        C642   1.396       .  A
C641        H653   1.082       .  S
C642        H654   1.083       .  S
C643        C644   1.351       .  D
C643        H655   1.086       .  S
C644        C645   1.488       .  S
C644        H656   1.086       .  S
C645        C646   1.408       .  A
C645        C650   1.406       .  A
C646        C647   1.402       .  A
C646        H657   1.083       .  S
C647        C648   1.401       .  A
C647        H658   1.083       .  S
C648        C649   1.403       .  A
C649        C650   1.397       .  A
C649        H659   1.083       .  S
C650        H660   1.082       .  S
C661        C662   1.404       .  A
C661        C666   1.405       .  A
C662        C663   1.403       .  A
C662        H675   1.083       .  S
C663        C664   1.407       .  A
C663        H676   1.083       .  S
C664        C665   1.407       .  A
C664        C667   1.490       .  S
C665        C666   1.396       .  A
C665        H677   1.082       .  S
C666        H678   1.083       .  S
C667        C668   1.352       .  D
C667        H679   1.083       .  S
C668        C669   1.492       .  S
C668        H680   1.085       .  S
C669        C670   1.408       .  A
C669        C674   1.409       .  A
C670        C671   1.398       .  A
C670        H681   1.083       .  S
C671        C672   1.400       .  A
C671        H682   1.083       .  S
C672        C673   1.403       .  A
C673        C674   1.400       .  A
C673        H683   1.083       .  S
C674        H684   1.080       .  S
C685        C686   1.401       .  A
C685        C690   1.403       .  A
C686        C687   1.398       .  A
C686        H699   1.083       .  S
C687        C688   1.407       .  A
C687        H700   1.083       .  S
C688        C689   1.409       .  A
C688        C691   1.490       .  S
C689        C690   1.399       .  A
C689        H701   1.080       .  S
C690        H702   1.083       .  S
C691        C692   1.351       .  D
C691        H703   1.086       .  S
C692        C693   1.487       .  S
C692        H704   1.083       .  S
C693        C694   1.405       .  A
C693        C698   1.405       .  A
C694        C695   1.403       .  A
C694        H705   1.083       .  S
C695        C696   1.405   1_655  A
C695        H706   1.083       .  S
C696        C697   1.406       .  A
C697        C698   1.395   1_455  A
C697        H707   1.083       .  S
C698        H708   1.082       .  S
C709        C710   1.403       .  A
C709        C714   1.406       .  A
C710        C711   1.402       .  A
C710        H723   1.083       .  S
C711        C712   1.407       .  A
C711        H724   1.083       .  S
C712        C713   1.407       .  A
C712        C715   1.491       .  S
C713        C714   1.396       .  A
C713        H725   1.081       .  S
C714        H726   1.083       .  S
C715        C716   1.353       .  D
C715        H727   1.083       .  S
C716        C717   1.494       .  S
C716        H728   1.085       .  S
C717        C718   1.410       .  A
C717        C722   1.409       .  A
C718        C719   1.402       .  A
C718        H729   1.083       .  S
C719        C720   1.401       .  A
C719        H730   1.083       .  S
C720        C721   1.402       .  A
C721        C722   1.396       .  A
C721        H731   1.084       .  S
C722        H732   1.079       .  S
C733        C734   1.403       .  A
C733        C738   1.403       .  A
C734        C735   1.396       .  A
C734        H747   1.083       .  S
C735        C736   1.402       .  A
C735        H748   1.083       .  S
C736        C737   1.412       .  A
C736        C739   1.489       .  S
C737        C738   1.403       .  A
C737        H749   1.082       .  S
C738        H750   1.083       .  S
C739        C740   1.347       .  D
C739        H751   1.083       .  S
C740        C741   1.493       .  S
C740        H752   1.086       .  S
C741        C742   1.404       .  A
C741        C746   1.413       .  A
C742        C743   1.395       .  A
C742        H753   1.083       .  S
C743        C744   1.404       .  A
C743        H754   1.084   1_545  S
C744        C745   1.403       .  A
C745        C746   1.403       .  A
C745        H755   1.083       .  S
C746        H756   1.080       .  S
C757        C758   1.403       .  A
C757        C762   1.401       .  A
C758        C759   1.395       .  A
C758        H771   1.084       .  S
C759        C760   1.400       .  A
C759        H772   1.083       .  S
C760        C761   1.410       .  A
C760        C763   1.483       .  S
C761        C762   1.403       .  A
C761        H773   1.083       .  S
C762        H774   1.082       .  S
C763        C764   1.343       .  D
C763        H775   1.085       .  S
C764        C765   1.487       .  S
C764        H776   1.087       .  S
C765        C766   1.402       .  A
C765        C770   1.411       .  A
C766        C767   1.395       .  A
C766        H777   1.083       .  S
C767        C768   1.404       .  A
C767        H778   1.084       .  S
C768        C769   1.403       .  A
C769        C770   1.403       .  A
C769        H779   1.083       .  S
C770        H780   1.081       .  S
C781        C782   1.401       .  A
C781        C786   1.402       .  A
C782        C783   1.401       .  A
C782        H795   1.083       .  S
C783        C784   1.407       .  A
C783        H796   1.083       .  S
C784        C785   1.406       .  A
C784        C787   1.487       .  S
C785        C786   1.397       .  A
C785        H797   1.082       .  S
C786        H798   1.083       .  S
C787        C788   1.350       .  D
C787        H799   1.086       .  S
C788        C789   1.486       .  S
C788        H800   1.085       .  S
C789        C790   1.405       .  A
C789        C794   1.405       .  A
C790        C791   1.402       .  A
C790        H801   1.083       .  S
C791        C792   1.405   1_545  A
C791        H802   1.083       .  S
C792        C793   1.407       .  A
C793        C794   1.396   1_565  A
C793        H803   1.083       .  S
C794        H804   1.083       .  S
C805        C806   1.400       .  A
C805        C810   1.401       .  A
C806        C807   1.399       .  A
C806        H819   1.083       .  S
C807        C808   1.408       .  A
C807        H820   1.083       .  S
C808        C809   1.409       .  A
C808        C811   1.492       .  S
C809        C810   1.397       .  A
C809        H821   1.079       .  S
C810        H822   1.084       .  S
C811        C812   1.352       .  D
C811        H823   1.084       .  S
C812        C813   1.490       .  S
C812        H824   1.083       .  S
C813        C814   1.407       .  A
C813        C818   1.407       .  A
C814        C815   1.402       .  A
C814        H825   1.083       .  S
C815        C816   1.403       .  A
C815        H826   1.083       .  S
C816        C817   1.406       .  A
C817        C818   1.395       .  A
C817        H827   1.083       .  S
C818        H828   1.081       .  S
C829        C830   1.403       .  A
C829        C834   1.403       .  A
C830        C831   1.397       .  A
C830        H843   1.083       .  S
C831        C832   1.402       .  A
C831        H844   1.083       .  S
C832        C833   1.410       .  A
C832        C835   1.488       .  S
C833        C834   1.401       .  A
C833        H845   1.082       .  S
C834        H846   1.082       .  S
C835        C836   1.347       .  D
C835        H847   1.084       .  S
C836        C837   1.492       .  S
C836        H848   1.086       .  S
C837        C838   1.404       .  A
C837        C842   1.412       .  A
C838        C839   1.395       .  A
C838        H849   1.083       .  S
C839        C840   1.404       .  A
C839        H850   1.083       .  S
C840        C841   1.403       .  A
C841        C842   1.403       .  A
C841        H851   1.083       .  S
C842        H852   1.080       .  S
C853        C854   1.399       .  A
C853        C858   1.401       .  A
C854        C855   1.400       .  A
C854        H867   1.083       .  S
C855        C856   1.408       .  A
C855        H868   1.083       .  S
C856        C857   1.407       .  A
C856        C859   1.487       .  S
C857        C858   1.395       .  A
C857        H869   1.081       .  S
C858        H870   1.083       .  S
C859        C860   1.350       .  D
C859        H871   1.086       .  S
C860        C861   1.485       .  S
C860        H872   1.084       .  S
C861        C862   1.405       .  A
C861        C866   1.406       .  A
C862        C863   1.401       .  A
C862        H873   1.083       .  S
C863        C864   1.404       .  A
C863        H874   1.083       .  S
C864        C865   1.405       .  A
C865        C866   1.395       .  A
C865        H875   1.083       .  S
C866        H876   1.082       .  S
C877        C878   1.403       .  A
C877        C882   1.402       .  A
C878        C879   1.394       .  A
C878        H891   1.083       .  S
C879        C880   1.400       .  A
C879        H892   1.083       .  S
C880        C881   1.410       .  A
C880        C883   1.482       .  S
C881        C882   1.400       .  A
C881        H893   1.082       .  S
C882        H894   1.082       .  S
C883        C884   1.345       .  D
C883        H895   1.083       .  S
C884        C885   1.490       .  S
C884        H896   1.087       .  S
C885        C886   1.403       .  A
C885        C890   1.413       .  A
C886        C887   1.394       .  A
C886        H897   1.084       .  S
C887        C888   1.402       .  A
C887        H898   1.084       .  S
C888        C889   1.401       .  A
C889        C890   1.402       .  A
C889        H899   1.083       .  S
C890        H900   1.079       .  S
C901        C902   1.403       .  A
C901        C906   1.403       .  A
C902        C903   1.396       .  A
C902        H915   1.083       .  S
C903        C904   1.401       .  A
C903        H916   1.083       .  S
C904        C905   1.410       .  A
C904        C907   1.485       .  S
C905        C906   1.401       .  A
C905        H917   1.082       .  S
C906        H918   1.083       .  S
C907        C908   1.346       .  D
C907        H919   1.083       .  S
C908        C909   1.492       .  S
C908        H920   1.086       .  S
C909        C910   1.403       .  A
C909        C914   1.413       .  A
C910        C911   1.394       .  A
C910        H921   1.083       .  S
C911        C912   1.403       .  A
C911        H922   1.084       .  S
C912        C913   1.402       .  A
C913        C914   1.403       .  A
C913        H923   1.083       .  S
C914        H924   1.079       .  S
C925        C926   1.403       .  A
C925        C930   1.402       .  A
C926        C927   1.394       .  A
C926        H939   1.084   1_545  S
C927        C928   1.404       .  A
C927        H940   1.083       .  S
C928        C929   1.412       .  A
C928        C931   1.491       .  S
C929        C930   1.402       .  A
C929        H941   1.079       .  S
C930        H942   1.083       .  S
C931        C932   1.347       .  D
C931        H943   1.087       .  S
C932        C933   1.485       .  S
C932        H944   1.083       .  S
C933        C934   1.401       .  A
C933        C938   1.409       .  A
C934        C935   1.396       .  A
C934        H945   1.083       .  S
C935        C936   1.404       .  A
C935        H946   1.083       .  S
C936        C937   1.403       .  A
C937        C938   1.401       .  A
C937        H947   1.082       .  S
C938        H948   1.082       .  S
C949        C950   1.405       .  A
C949        C954   1.408       .  A
C950        C951   1.404       .  A
C950        H963   1.083       .  S
C951        C952   1.406       .  A
C951        H964   1.083       .  S
C952        C953   1.404       .  A
C952        C955   1.487       .  S
C953        C954   1.395       .  A
C953        H965   1.082       .  S
C954        H966   1.083       .  S
C955        C956   1.350       .  D
C955        H967   1.085       .  S
C956        C957   1.487       .  S
C956        H968   1.086       .  S
C957        C958   1.407       .  A
C957        C962   1.407       .  A
C958        C959   1.400       .  A
C958        H969   1.083       .  S
C959        C960   1.400       .  A
C959        H970   1.083       .  S
C960        C961   1.402       .  A
C961        C962   1.397       .  A
C961        H971   1.083       .  S
C962        H972   1.082       .  S
C973        C974   1.401       .  A
C973        C978   1.403       .  A
C974        C975   1.399       .  A
C974        H987   1.083       .  S
C975        C976   1.408       .  A
C975        H988   1.083       .  S
C976        C977   1.409       .  A
C976        C979   1.493       .  S
C977        C978   1.399       .  A
C977        H989   1.080       .  S
C978        H990   1.083       .  S
C979        C980   1.352       .  D
C979        H991   1.085       .  S
C980        C981   1.490       .  S
C980        H992   1.083       .  S
C981        C982   1.406       .  A
C981        C986   1.406       .  A
C982        C983   1.403       .  A
C982        H993   1.083       .  S
C983        C984   1.405       .  A
C983        H994   1.083       .  S
C984        C985   1.406       .  A
C985        C986   1.397       .  A
C985        H995   1.083       .  S
C986        H996   1.082       .  S
C997        C998   1.402       .  A
C997       C1002   1.403       .  A
C998        C999   1.395       .  A
C998       H1011   1.083       .  S
C999       C1000   1.401       .  A
C999       H1012   1.083       .  S
C1000      C1001   1.411       .  A
C1000      C1003   1.486       .  S
C1001      C1002   1.404       .  A
C1001      H1013   1.082       .  S
C1002      H1014   1.083       .  S
C1003      C1004   1.344       .  D
C1003      H1015   1.085       .  S
C1004      C1005   1.489       .  S
C1004      H1016   1.087       .  S
C1005      C1006   1.401   1_545  A
C1005      C1010   1.411       .  A
C1006      C1007   1.394       .  A
C1006      H1017   1.084       .  S
C1007      C1008   1.405       .  A
C1007      H1018   1.084       .  S
C1008      C1009   1.403       .  A
C1009      C1010   1.404   1_565  A
C1009      H1019   1.083       .  S
C1010      H1020   1.081       .  S
C1021      C1022   1.403       .  A
C1021      C1026   1.403   1_455  A
C1022      C1023   1.395   1_455  A
C1022      H1035   1.083       .  S
C1023      C1024   1.404       .  A
C1023      H1036   1.083       .  S
C1024      C1025   1.413       .  A
C1024      C1027   1.493       .  S
C1025      C1026   1.404       .  A
C1025      H1037   1.079       .  S
C1026      H1038   1.083   1_655  S
C1027      C1028   1.347       .  D
C1027      H1039   1.086       .  S
C1028      C1029   1.486       .  S
C1028      H1040   1.083       .  S
C1029      C1030   1.401       .  A
C1029      C1034   1.410       .  A
C1030      C1031   1.395       .  A
C1030      H1041   1.083       .  S
C1031      C1032   1.405       .  A
C1031      H1042   1.083       .  S
C1032      C1033   1.403       .  A
C1033      C1034   1.401       .  A
C1033      H1043   1.083       .  S
C1034      H1044   1.082       .  S
C1045      C1046   1.401       .  A
C1045      C1050   1.402       .  A
C1046      C1047   1.401       .  A
C1046      H1059   1.083       .  S
C1047      C1048   1.409       .  A
C1047      H1060   1.083       .  S
C1048      C1049   1.409       .  A
C1048      C1051   1.493       .  S
C1049      C1050   1.398       .  A
C1049      H1061   1.080       .  S
C1050      H1062   1.083       .  S
C1051      C1052   1.353       .  D
C1051      H1063   1.085       .  S
C1052      C1053   1.493       .  S
C1052      H1064   1.084       .  S
C1053      C1054   1.408       .  A
C1053      C1058   1.407       .  A
C1054      C1055   1.404       .  A
C1054      H1065   1.083       .  S
C1055      C1056   1.404       .  A
C1055      H1066   1.083       .  S
C1056      C1057   1.406       .  A
C1057      C1058   1.397       .  A
C1057      H1067   1.083       .  S
C1058      H1068   1.081       .  S
C1069      C1070   1.405       .  A
C1069      C1074   1.402       .  A
C1070      C1071   1.395       .  A
C1070      H1083   1.084       .  S
C1071      C1072   1.401       .  A
C1071      H1084   1.083       .  S
C1072      C1073   1.411       .  A
C1072      C1075   1.487       .  S
C1073      C1074   1.403       .  A
C1073      H1085   1.082       .  S
C1074      H1086   1.083       .  S
C1075      C1076   1.343       .  D
C1075      H1087   1.086       .  S
C1076      C1077   1.485       .  S
C1076      H1088   1.086       .  S
C1077      C1078   1.401       .  A
C1077      C1082   1.411       .  A
C1078      C1079   1.394       .  A
C1078      H1089   1.083       .  S
C1079      C1080   1.402       .  A
C1079      H1090   1.083       .  S
C1080      C1081   1.401       .  A
C1081      C1082   1.403       .  A
C1081      H1091   1.083       .  S
C1082      H1092   1.082       .  S
C1093      C1094   1.404       .  A
C1093      C1098   1.406       .  A
C1094      C1095   1.403       .  A
C1094      H1107   1.083       .  S
C1095      C1096   1.407       .  A
C1095      H1108   1.083       .  S
C1096      C1097   1.405       .  A
C1096      C1099   1.488       .  S
C1097      C1098   1.394       .  A
C1097      H1109   1.082       .  S
C1098      H1110   1.083       .  S
C1099      C1100   1.353       .  D
C1099      H1111   1.082       .  S
C1100      C1101   1.492       .  S
C1100      H1112   1.085       .  S
C1101      C1102   1.409       .  A
C1101      C1106   1.408       .  A
C1102      C1103   1.400       .  A
C1102      H1113   1.083       .  S
C1103      C1104   1.400       .  A
C1103      H1114   1.083       .  S
C1104      C1105   1.401       .  A
C1105      C1106   1.396       .  A
C1105      H1115   1.084       .  S
C1106      H1116   1.079       .  S
C1117      C1118   1.403       .  A
C1117      C1122   1.402       .  A
C1118      C1119   1.395       .  A
C1118      H1131   1.083       .  S
C1119      C1120   1.403       .  A
C1119      H1132   1.083       .  S
C1120      C1121   1.413       .  A
C1120      C1123   1.492       .  S
C1121      C1122   1.402       .  A
C1121      H1133   1.079       .  S
C1122      H1134   1.083       .  S
C1123      C1124   1.347       .  D
C1123      H1135   1.086       .  S
C1124      C1125   1.486       .  S
C1124      H1136   1.083       .  S
C1125      C1126   1.401       .  A
C1125      C1130   1.410       .  A
C1126      C1127   1.395       .  A
C1126      H1137   1.083       .  S
C1127      C1128   1.403       .  A
C1127      H1138   1.083       .  S
C1128      C1129   1.403       .  A
C1129      C1130   1.402       .  A
C1129      H1139   1.082       .  S
C1130      H1140   1.082       .  S
C1141      C1142   1.405       .  A
C1141      C1146   1.404       .  A
C1142      C1143   1.397       .  A
C1142      H1155   1.083       .  S
C1143      C1144   1.401       .  A
C1143      H1156   1.083       .  S
C1144      C1145   1.409       .  A
C1144      C1147   1.487       .  S
C1145      C1146   1.401       .  A
C1145      H1157   1.082       .  S
C1146      H1158   1.082       .  S
C1147      C1148   1.347       .  D
C1147      H1159   1.084       .  S
C1148      C1149   1.491       .  S
C1148      H1160   1.086       .  S
C1149      C1150   1.403       .  A
C1149      C1154   1.412       .  A
C1150      C1151   1.395       .  A
C1150      H1161   1.084       .  S
C1151      C1152   1.405       .  A
C1151      H1162   1.083       .  S
C1152      C1153   1.403       .  A
C1153      C1154   1.404       .  A
C1153      H1163   1.083       .  S
C1154      H1164   1.081       .  S
C1165      C1166   1.404       .  A
C1165      C1170   1.404       .  A
C1166      C1167   1.404       .  A
C1166      H1179   1.083   1_545  S
C1167      C1168   1.407       .  A
C1167      H1180   1.083       .  S
C1168      C1169   1.406       .  A
C1168      C1171   1.489       .  S
C1169      C1170   1.394       .  A
C1169      H1181   1.082       .  S
C1170      H1182   1.083       .  S
C1171      C1172   1.351       .  D
C1171      H1183   1.084       .  S
C1172      C1173   1.489       .  S
C1172      H1184   1.085       .  S
C1173      C1174   1.407       .  A
C1173      C1178   1.408       .  A
C1174      C1175   1.399       .  A
C1174      H1185   1.083       .  S
C1175      C1176   1.400       .  A
C1175      H1186   1.082       .  S
C1176      C1177   1.403       .  A
C1177      C1178   1.398       .  A
C1177      H1187   1.084       .  S
C1178      H1188   1.080       .  S
C1189      C1190   1.405       .  A
C1189      C1194   1.403       .  A
C1190      C1191   1.396       .  A
C1190      H1203   1.083       .  S
C1191      C1192   1.403       .  A
C1191      H1204   1.083       .  S
C1192      C1193   1.411       .  A
C1192      C1195   1.490       .  S
C1193      C1194   1.403       .  A
C1193      H1205   1.081       .  S
C1194      H1206   1.083       .  S
C1195      C1196   1.345       .  D
C1195      H1207   1.086       .  S
C1196      C1197   1.487       .  S
C1196      H1208   1.085       .  S
C1197      C1198   1.402       .  A
C1197      C1202   1.411       .  A
C1198      C1199   1.396       .  A
C1198      H1209   1.083       .  S
C1199      C1200   1.402       .  A
C1199      H1210   1.083       .  S
C1200      C1201   1.401       .  A
C1201      C1202   1.403       .  A
C1201      H1211   1.083       .  S
C1202      H1212   1.082       .  S
C1213      C1214   1.401       .  A
C1213      C1218   1.402       .  A
C1214      C1215   1.398       .  A
C1214      H1227   1.083       .  S
C1215      C1216   1.407       .  A
C1215      H1228   1.083       .  S
C1216      C1217   1.408       .  A
C1216      C1219   1.488       .  S
C1217      C1218   1.396       .  A
C1217      H1229   1.080       .  S
C1218      H1230   1.083       .  S
C1219      C1220   1.350       .  D
C1219      H1231   1.085       .  S
C1220      C1221   1.484       .  S
C1220      H1232   1.083       .  S
C1221      C1222   1.405       .  A
C1221      C1226   1.406       .  A
C1222      C1223   1.400       .  A
C1222      H1233   1.083       .  S
C1223      C1224   1.403       .  A
C1223      H1234   1.083       .  S
C1224      C1225   1.405       .  A
C1225      C1226   1.395       .  A
C1225      H1235   1.083       .  S
C1226      H1236   1.082       .  S
C1237      C1238   1.405       .  A
C1237      C1242   1.403       .  A
C1238      C1239   1.397       .  A
C1238      H1251   1.083       .  S
C1239      C1240   1.402       .  A
C1239      H1252   1.083       .  S
C1240      C1241   1.409       .  A
C1240      C1243   1.487       .  S
C1241      C1242   1.401       .  A
C1241      H1253   1.082       .  S
C1242      H1254   1.081       .  S
C1243      C1244   1.348       .  D
C1243      H1255   1.083       .  S
C1244      C1245   1.491       .  S
C1244      H1256   1.086       .  S
C1245      C1246   1.403       .  A
C1245      C1250   1.412       .  A
C1246      C1247   1.396       .  A
C1246      H1257   1.083       .  S
C1247      C1248   1.404       .  A
C1247      H1258   1.083       .  S
C1248      C1249   1.403       .  A
C1249      C1250   1.403       .  A
C1249      H1259   1.083       .  S
C1250      H1260   1.080       .  S
C1261      C1262   1.404       .  A
C1261      C1266   1.404       .  A
C1262      C1263   1.397       .  A
C1262      H1275   1.083       .  S
C1263      C1264   1.402       .  A
C1263      H1276   1.083       .  S
C1264      C1265   1.411       .  A
C1264      C1267   1.491       .  S
C1265      C1266   1.405       .  A
C1265      H1277   1.082       .  S
C1266      H1278   1.082       .  S
C1267      C1268   1.348       .  D
C1267      H1279   1.083       .  S
C1268      C1269   1.497       .  S
C1268      H1280   1.086       .  S
C1269      C1270   1.403       .  A
C1269      C1274   1.414       .  A
C1270      C1271   1.395       .  A
C1270      H1281   1.083       .  S
C1271      C1272   1.405       .  A
C1271      H1282   1.083       .  S
C1272      C1273   1.403       .  A
C1273      C1274   1.406       .  A
C1273      H1283   1.083       .  S
C1274      H1284   1.079       .  S
C1285      C1286   1.401       .  A
C1285      C1290   1.401       .  A
C1286      C1287   1.400       .  A
C1286      H1299   1.083       .  S
C1287      C1288   1.409       .  A
C1287      H1300   1.083       .  S
C1288      C1289   1.409       .  A
C1288      C1291   1.492       .  S
C1289      C1290   1.395       .  A
C1289      H1301   1.079       .  S
C1290      H1302   1.084       .  S
C1291      C1292   1.352       .  D
C1291      H1303   1.085       .  S
C1292      C1293   1.486       .  S
C1292      H1304   1.082       .  S
C1293      C1294   1.406       .  A
C1293      C1298   1.406       .  A
C1294      C1295   1.401       .  A
C1294      H1305   1.083       .  S
C1295      C1296   1.403       .  A
C1295      H1306   1.083       .  S
C1296      C1297   1.405       .  A
C1297      C1298   1.396       .  A
C1297      H1307   1.083       .  S
C1298      H1308   1.082       .  S
C1309      C1310   1.402       .  A
C1309      C1314   1.401       .  A
C1310      C1311   1.397       .  A
C1310      H1323   1.083       .  S
C1311      C1312   1.402       .  A
C1311      H1324   1.083       .  S
C1312      C1313   1.411       .  A
C1312      C1315   1.487       .  S
C1313      C1314   1.400       .  A
C1313      H1325   1.082       .  S
C1314      H1326   1.083       .  S
C1315      C1316   1.344       .  D
C1315      H1327   1.085       .  S
C1316      C1317   1.487       .  S
C1316      H1328   1.086       .  S
C1317      C1318   1.401       .  A
C1317      C1322   1.411       .  A
C1318      C1319   1.392       .  A
C1318      H1329   1.084       .  S
C1319      C1320   1.405       .  A
C1319      H1330   1.083       .  S
C1320      C1321   1.405       .  A
C1321      C1322   1.406       .  A
C1321      H1331   1.083       .  S
C1322      H1332   1.081       .  S
C1333      C1334   1.404       .  A
C1333      C1338   1.406       .  A
C1334      C1335   1.402       .  A
C1334      H1347   1.083       .  S
C1335      C1336   1.406       .  A
C1335      H1348   1.083       .  S
C1336      C1337   1.406       .  A
C1336      C1339   1.489       .  S
C1337      C1338   1.397       .  A
C1337      H1349   1.082       .  S
C1338      H1350   1.083       .  S
C1339      C1340   1.352       .  D
C1339      H1351   1.084       .  S
C1340      C1341   1.492       .  S
C1340      H1352   1.085       .  S
C1341      C1342   1.409       .  A
C1341      C1346   1.408       .  A
C1342      C1343   1.401       .  A
C1342      H1353   1.083       .  S
C1343      C1344   1.400       .  A
C1343      H1354   1.083       .  S
C1344      C1345   1.402       .  A
C1345      C1346   1.397       .  A
C1345      H1355   1.084       .  S
C1346      H1356   1.080       .  S
C1357      C1358   1.406       .  A
C1357      C1362   1.404       .  A
C1358      C1359   1.396       .  A
C1358      H1371   1.083       .  S
C1359      C1360   1.403       .  A
C1359      H1372   1.084       .  S
C1360      C1361   1.411       .  A
C1360      C1363   1.491       .  S
C1361      C1362   1.404       .  A
C1361      H1373   1.081       .  S
C1362      H1374   1.083       .  S
C1363      C1364   1.347       .  D
C1363      H1375   1.086       .  S
C1364      C1365   1.486       .  S
C1364      H1376   1.084       .  S
C1365      C1366   1.402       .  A
C1365      C1370   1.409       .  A
C1366      C1367   1.397       .  A
C1366      H1377   1.083       .  S
C1367      C1368   1.405       .  A
C1367      H1378   1.083       .  S
C1368      C1369   1.404       .  A
C1369      C1370   1.401       .  A
C1369      H1379   1.083       .  S
C1370      H1380   1.082       .  S
C1381      C1382   1.405       .  A
C1381      C1386   1.406       .  A
C1382      C1383   1.405       .  A
C1382      H1395   1.083       .  S
C1383      C1384   1.407       .  A
C1383      H1396   1.083       .  S
C1384      C1385   1.404       .  A
C1384      C1387   1.487       .  S
C1385      C1386   1.393       .  A
C1385      H1397   1.082       .  S
C1386      H1398   1.083       .  S
C1387      C1388   1.350       .  D
C1387      H1399   1.085       .  S
C1388      C1389   1.487       .  S
C1388      H1400   1.086       .  S
C1389      C1390   1.407       .  A
C1389      C1394   1.407       .  A
C1390      C1391   1.399       .  A
C1390      H1401   1.083       .  S
C1391      C1392   1.401       .  A
C1391      H1402   1.083       .  S
C1392      C1393   1.403       .  A
C1393      C1394   1.398       .  A
C1393      H1403   1.083       .  S
C1394      H1404   1.081       .  S
C1405      C1406   1.400       .  A
C1405      C1410   1.402       .  A
C1406      C1407   1.402       .  A
C1406      H1419   1.083       .  S
C1407      C1408   1.409       .  A
C1407      H1420   1.083       .  S
C1408      C1409   1.408       .  A
C1408      C1411   1.492       .  S
C1409      C1410   1.397       .  A
C1409      H1421   1.081       .  S
C1410      H1422   1.083       .  S
C1411      C1412   1.352       .  D
C1411      H1423   1.085       .  S
C1412      C1413   1.491       .  S
C1412      H1424   1.084       .  S
C1413      C1414   1.407       .  A
C1413      C1418   1.406       .  A
C1414      C1415   1.403       .  A
C1414      H1425   1.083       .  S
C1415      C1416   1.404       .  A
C1415      H1426   1.083   1_655  S
C1416      C1417   1.406       .  A
C1417      C1418   1.396       .  A
C1417      H1427   1.083       .  S
C1418      H1428   1.081       .  S
C1429      C1430   1.404       .  A
C1429      C1434   1.403       .  A
C1430      C1431   1.396       .  A
C1430      H1443   1.083       .  S
C1431      C1432   1.401       .  A
C1431      H1444   1.083       .  S
C1432      C1433   1.411       .  A
C1432      C1435   1.487       .  S
C1433      C1434   1.403       .  A
C1433      H1445   1.082       .  S
C1434      H1446   1.083       .  S
C1435      C1436   1.347       .  D
C1435      H1447   1.083       .  S
C1436      C1437   1.495       .  S
C1436      H1448   1.086       .  S
C1437      C1438   1.404       .  A
C1437      C1442   1.413       .  A
C1438      C1439   1.396       .  A
C1438      H1449   1.083       .  S
C1439      C1440   1.404       .  A
C1439      H1450   1.083       .  S
C1440      C1441   1.403       .  A
C1441      C1442   1.404       .  A
C1441      H1451   1.083       .  S
C1442      H1452   1.079       .  S
C1453      C1454   1.404       .  A
C1453      C1458   1.406       .  A
C1454      C1455   1.401       .  A
C1454      H1467   1.083       .  S
C1455      C1456   1.406       .  A
C1455      H1468   1.083       .  S
C1456      C1457   1.405       .  A
C1456      C1459   1.484       .  S
C1457      C1458   1.393       .  A
C1457      H1469   1.082       .  S
C1458      H1470   1.083       .  S
C1459      C1460   1.350       .  D
C1459      H1471   1.084       .  S
C1460      C1461   1.486       .  S
C1460      H1472   1.086       .  S
C1461      C1462   1.408       .  A
C1461      C1466   1.407       .  A
C1462      C1463   1.399       .  A
C1462      H1473   1.083       .  S
C1463      C1464   1.400       .  A
C1463      H1474   1.083       .  S
C1464      C1465   1.400       .  A
C1465      C1466   1.394       .  A
C1465      H1475   1.084       .  S
C1466      H1476   1.080       .  S
C1477      C1478   1.403       .  A
C1477      C1482   1.403       .  A
C1478      C1479   1.396       .  A
C1478      H1491   1.083       .  S
C1479      C1480   1.402       .  A
C1479      H1492   1.083       .  S
C1480      C1481   1.412       .  A
C1480      C1483   1.490       .  S
C1481      C1482   1.403       .  A
C1481      H1493   1.081       .  S
C1482      H1494   1.082       .  S
C1483      C1484   1.347       .  D
C1483      H1495   1.083       .  S
C1484      C1485   1.494       .  S
C1484      H1496   1.085       .  S
C1485      C1486   1.403       .  A
C1485      C1490   1.414       .  A
C1486      C1487   1.395       .  A
C1486      H1497   1.083       .  S
C1487      C1488   1.404       .  A
C1487      H1498   1.084       .  S
C1488      C1489   1.402       .  A
C1489      C1490   1.404       .  A
C1489      H1499   1.083       .  S
C1490      H1500   1.080       .  S
