geometry optimzed in LAMMPS
_audit_creation_date              2020-11-30 
_audit_creation_method            'lammps2cif' 
_symmetry_space_group_name_H-M    'P1' 
_symmetry_Int_Tables_number       1 
_symmetry_cell_setting            triclinic 
loop_ 
_symmetry_equiv_pos_as_xyz 
  x,y,z 
_cell_length_a                    51.016568107499864 
_cell_length_b                    50.943889320020546 
_cell_length_c                    50.92513090587799 
_cell_angle_alpha                 90.12886071820434 
_cell_angle_beta                  89.89972960149767 
_cell_angle_gamma                 90.15055689083974 
loop_ 
_atom_site_label 
_atom_site_type_symbol 
_atom_site_fract_x 
_atom_site_fract_y 
_atom_site_fract_z 
_atom_site_charge 
C1          C  0.49935610  0.80061701  0.70042654     0.02890
C2          C  0.49714924  0.82745253  0.70669301    -0.13260
C3          C  0.49688873  0.84653995  0.68676474     0.00390
C4          C  0.49934545  0.83836721  0.66053420    -0.11790
C5          C  0.50023176  0.81167863  0.65406047     0.02880
C6          C  0.50031193  0.79284150  0.67397061    -0.11210
H7          H  0.49564905  0.83341679  0.72707815     0.08480
H8          H  0.50034358  0.85277468  0.64494443     0.06010
H9          H  0.50076780  0.77217963  0.66887099     0.05850
C10         C  0.49738181  0.72203960  0.78220933     0.02890
C11         C  0.49775213  0.72932744  0.80888400    -0.13260
C12         C  0.49813281  0.71005680  0.82853422     0.00390
C13         C  0.49825049  0.68353762  0.82128982    -0.11790
C14         C  0.49930380  0.67598678  0.79486701     0.02880
C15         C  0.49842000  0.69529797  0.77531476    -0.11210
H16         H  0.49838978  0.74990891  0.81426984     0.08480
H17         H  0.49822240  0.66859601  0.83642463     0.06010
H18         H  0.49895725  0.68957975  0.75480713     0.05850
C19         C  0.78996313  0.71784244  0.48906461     0.02890
C20         C  0.81672186  0.72475006  0.48932667    -0.13260
C21         C  0.83601348  0.70554026  0.49326744     0.00390
C22         C  0.82806697  0.67941716  0.49676352    -0.11790
C23         C  0.80180952  0.67190171  0.49420948     0.02880
C24         C  0.78264653  0.69127147  0.49099905    -0.11210
H25         H  0.82234462  0.74496319  0.48593147     0.08480
H26         H  0.84267558  0.66436515  0.50007343     0.06010
H27         H  0.76219499  0.68570133  0.48963364     0.05850
C28         C  0.71081366  0.79893406  0.48894887     0.02890
C29         C  0.68403341  0.79216603  0.48857650    -0.13260
C30         C  0.66471653  0.81178885  0.48916850     0.00390
C31         C  0.67253450  0.83822564  0.48948942    -0.11790
C32         C  0.69904317  0.84514224  0.48870225     0.02880
C33         C  0.71815426  0.82554073  0.48849854    -0.11210
H34         H  0.67831089  0.77169332  0.48771776     0.08480
H35         H  0.65789882  0.85361862  0.48996708     0.06010
H36         H  0.73868827  0.83099398  0.48767720     0.05850
C37         C  0.78979280  0.50910551  0.69875262     0.02890
C38         C  0.78251613  0.50786162  0.67212728    -0.13260
C39         C  0.80175767  0.50599816  0.65251265     0.00390
C40         C  0.82820864  0.50525510  0.65975427    -0.11790
C41         C  0.83591620  0.50889258  0.68590651     0.02880
C42         C  0.81652162  0.51026374  0.70544809    -0.11210
H43         H  0.76202181  0.50899371  0.66671446     0.08480
H44         H  0.84297611  0.50282248  0.64462388     0.06010
H45         H  0.82213996  0.51250122  0.72584057     0.05850
C46         C  0.71220622  0.51597698  0.78121651     0.02890
C47         C  0.68562424  0.51829588  0.77447478    -0.13260
C48         C  0.66618255  0.51745113  0.79393034     0.00390
C49         C  0.67381473  0.51558447  0.82031024    -0.11790
C50         C  0.70029277  0.51344886  0.82752269     0.02880
C51         C  0.71945437  0.51318005  0.80770198    -0.11210
H52         H  0.68017513  0.52067083  0.75407010     0.08480
H53         H  0.65886410  0.51531180  0.83545597     0.06010
H54         H  0.73984812  0.51014400  0.81269298     0.05850
C55         C  0.79056249  0.79896763  0.99204316     0.02890
C56         C  0.78319450  0.82556412  0.99114077    -0.13260
C57         C  0.80175758  0.84498996  0.98537782     0.00390
C58         C  0.82756722  0.83751331  0.98006767    -0.11790
C59         C  0.83614929  0.81167582  0.98414238     0.02880
C60         C  0.81726946  0.79224553  0.98958692    -0.11210
H61         H  0.76309234  0.83103565  0.99523301     0.08480
H62         H  0.84161494  0.85258928  0.97469339     0.06010
H63         H  0.82319456  0.77209029  0.99219210     0.05850
C64         C  0.71009379  0.71873679  0.99325009     0.02890
C65         C  0.68348472  0.72498305  0.99672505    -0.13260
C66         C  0.66425136  0.70530312  0.99556957     0.00390
C67         C  0.67193797  0.67929553  0.99095207    -0.11790
C68         C  0.69840470  0.67260706  0.98783855     0.02880
C69         C  0.71747988  0.69245789  0.98928177    -0.11210
H70         H  0.67777629  0.74515930  0.00027375     0.08480
H71         H  0.65714590  0.66405325  0.98988082     0.06010
H72         H  0.73799746  0.68756173  0.98679449     0.05850
C73         C  0.79200742  0.01449865  0.78063271     0.02890
C74         C  0.81835387  0.01406099  0.77259295    -0.13260
C75         C  0.83846806  0.01514244  0.79124695     0.00390
C76         C  0.83209285  0.01578841  0.81805790    -0.11790
C77         C  0.80585280  0.01676834  0.82648506     0.02880
C78         C  0.78583058  0.01607632  0.80751622    -0.11210
H79         H  0.82315868  0.01323412  0.75186522     0.08480
H80         H  0.84774439  0.01539387  0.83240825     0.06010
H81         H  0.76547606  0.01662424  0.81361268     0.05850
C82         C  0.71128860  0.01155802  0.70137180     0.02890
C83         C  0.68469556  0.01211521  0.70868362    -0.13260
C84         C  0.66508294  0.01018200  0.68948953     0.00390
C85         C  0.67240021  0.00624410  0.66324988    -0.11790
C86         C  0.69872782  0.00733280  0.65533771     0.02880
C87         C  0.71822489  0.00989708  0.67465567    -0.11210
H88         H  0.67936547  0.01442536  0.72916689     0.08480
H89         H  0.65726995  0.00347744  0.64857017     0.06010
H90         H  0.73866119  0.01126803  0.66903383     0.05850
C91         C  0.00132207  0.79937490  0.78066067     0.02890
C92         C  0.00115594  0.82611549  0.77387069    -0.13260
C93         C  0.00131486  0.84551553  0.79350296     0.00390
C94         C  0.00152284  0.83793623  0.81994389    -0.11790
C95         C  0.00175562  0.81139700  0.82688038     0.02880
C96         C  0.00197282  0.79211749  0.80726093    -0.11210
H97         H  0.00029622  0.83176954  0.75338842     0.08480
H98         H  0.00136278  0.85276722  0.83525720     0.06010
H99         H  0.00228699  0.77155593  0.81266805     0.05850
C100        C  0.00151979  0.71948603  0.69979037     0.02890
C101        C  0.99901332  0.69298544  0.70710271    -0.13260
C102        C  0.99946501  0.67305158  0.68803514     0.00390
C103        C  0.00125728  0.68003681  0.66143900    -0.11790
C104        C  0.00268005  0.70639785  0.65368400     0.02880
C105        C  0.00315448  0.72606184  0.67302196    -0.11210
H106        H  0.99681018  0.68793717  0.72763987     0.08480
H107        H  0.00134920  0.66478311  0.64655881     0.06010
H108        H  0.00476454  0.74646253  0.66727887     0.05850
C109        C  0.49746993  0.22075346  0.70301713     0.02890
C110        C  0.49792547  0.22759250  0.67624318    -0.13260
C111        C  0.49834790  0.20803989  0.65682116     0.00390
C112        C  0.49846514  0.18159446  0.66414983    -0.11790
C113        C  0.49832469  0.17441725  0.69069464     0.02880
C114        C  0.49795941  0.19404350  0.71009904    -0.11210
H115        H  0.49773178  0.24806940  0.67052056     0.08480
H116        H  0.49885582  0.16650691  0.64909441     0.06010
H117        H  0.49860374  0.18854247  0.73062881     0.05850
C118        C  0.50030866  0.30250599  0.78246810     0.02890
C119        C  0.50058467  0.32925200  0.77556183    -0.13260
C120        C  0.50224247  0.34868093  0.79503495     0.00390
C121        C  0.50264002  0.34138260  0.82152562    -0.11790
C122        C  0.50157666  0.31490087  0.82874573     0.02880
C123        C  0.50028277  0.29548602  0.80920996    -0.11210
H124        H  0.49991479  0.33493829  0.75508350     0.08480
H125        H  0.50371081  0.35640486  0.83661438     0.06010
H126        H  0.49982205  0.27497561  0.81479999     0.05850
O127        O  0.54064686  0.00981925  0.72654252    -0.73180
O128        O  0.46131414  0.01084493  0.72639354    -0.74160
O129        O  0.50027201  0.97062202  0.72585235    -0.62780
O130        O  0.50138747  0.05012052  0.72690417    -0.71190
O131        O  0.50202347  0.05015593  0.68329139    -0.70750
O132        O  0.50008693  0.97179844  0.68230772    -0.62000
O133        O  0.46195493  0.01124667  0.68279717    -0.74510
O134        O  0.54019241  0.01042869  0.68299912    -0.73290
Cu135      Cu  0.50093280  0.01035000  0.72802904     1.04560
Cu136      Cu  0.50109635  0.01094065  0.68141997     1.04330
C137        C  0.55287943  0.01013322  0.70459956     0.93010
C138        C  0.44923844  0.01082984  0.70441113     0.92150
C139        C  0.49960138  0.95876762  0.70368889     0.84300
C140        C  0.50205380  0.06253536  0.70510375     0.90570
C141        C  0.99904339  0.21896618  0.77931948     0.02890
C142        C  0.99734635  0.22661593  0.80577869    -0.13260
C143        C  0.99731262  0.20766115  0.82564205     0.00390
C144        C  0.99877305  0.18103972  0.81901172    -0.11790
C145        C  0.00164739  0.17313419  0.79275006     0.02880
C146        C  0.00150483  0.19223320  0.77288806    -0.11210
H147        H  0.99620561  0.24724966  0.81088812     0.08480
H148        H  0.99820548  0.16644193  0.83446095     0.06010
H149        H  0.00340634  0.18635557  0.75250649     0.05850
C150        C  0.00198397  0.29948093  0.69995408     0.02890
C151        C  0.00434365  0.32578236  0.70788655    -0.13260
C152        C  0.00611215  0.34576190  0.68908106     0.00390
C153        C  0.00503827  0.33928995  0.66234594    -0.11790
C154        C  0.00217710  0.31313210  0.65408765     0.02880
C155        C  0.00048542  0.29325164  0.67310662    -0.11210
H156        H  0.00506314  0.33064566  0.72860610     0.08480
H157        H  0.00603041  0.35483348  0.64786641     0.06010
H158        H  0.99766792  0.27301555  0.66714391     0.05850
C159        C  0.21153809  0.00958774  0.78285003     0.02890
C160        C  0.21897235  0.01069123  0.80946579    -0.13260
C161        C  0.19987653  0.01200480  0.82931279     0.00390
C162        C  0.17332855  0.01221832  0.82224439    -0.11790
C163        C  0.16546524  0.00880013  0.79610415     0.02880
C164        C  0.18474538  0.00802123  0.77634662    -0.11210
H165        H  0.23954022  0.00995416  0.81465584     0.08480
H166        H  0.15858077  0.01413454  0.83747238     0.06010
H167        H  0.17897030  0.00605480  0.75596974     0.05850
C168        C  0.29109332  0.00649197  0.70151109     0.02890
C169        C  0.31773952  0.00719270  0.70867381    -0.13260
C170        C  0.33732595  0.00816957  0.68932251     0.00390
C171        C  0.33000735  0.01011346  0.66291881    -0.11790
C172        C  0.30364939  0.00861376  0.65526427     0.02880
C173        C  0.28420091  0.00666861  0.67474765    -0.11210
H174        H  0.32318017  0.00640322  0.72921829     0.08480
H175        H  0.34513715  0.01203183  0.64805795     0.06010
H176        H  0.26377183  0.00522672  0.66919322     0.05850
O177        O  0.96268122  0.00913714  0.75468232    -0.73180
O178        O  0.04175261  0.00871740  0.75755071    -0.74160
O179        O  0.00184154  0.96926867  0.75680093    -0.62780
O180        O  0.00252918  0.04864722  0.75582560    -0.71190
O181        O  0.00330671  0.04864477  0.79941167    -0.70750
O182        O  0.99800089  0.97059634  0.80021461    -0.62000
O183        O  0.03980098  0.00716563  0.80103007    -0.74510
O184        O  0.96156538  0.01220235  0.79819220    -0.73290
Cu185      Cu  0.00227176  0.00890895  0.75461436     1.04560
Cu186      Cu  0.00061751  0.00965249  0.80117022     1.04330
C187        C  0.94977331  0.01117914  0.77611141     0.93010
C188        C  0.05321899  0.00764395  0.77981989     0.92150
C189        C  0.99923342  0.95754582  0.77884171     0.84300
C190        C  0.00331274  0.06105818  0.77768258     0.90570
C191        C  0.20882906  0.50696957  0.70137129     0.02890
C192        C  0.21420170  0.50676004  0.67425730    -0.13260
C193        C  0.19368259  0.50780160  0.65593356     0.00390
C194        C  0.16786251  0.51045490  0.66498464    -0.11790
C195        C  0.16221699  0.51011383  0.69182562     0.02880
C196        C  0.18266202  0.50847003  0.71003389    -0.11210
H197        H  0.23430310  0.50573196  0.66744245     0.08480
H198        H  0.15192211  0.51228079  0.65106523     0.06010
H199        H  0.17821954  0.50824490  0.73085375     0.05850
C200        C  0.29136279  0.50796362  0.77913543     0.02890
C201        C  0.31811435  0.50807942  0.77221169    -0.13260
C202        C  0.33747563  0.50973690  0.79179522     0.00390
C203        C  0.32962271  0.51084786  0.81819346    -0.11790
C204        C  0.30329847  0.50804174  0.82539107     0.02880
C205        C  0.28415779  0.50708580  0.80576559    -0.11210
H206        H  0.32370711  0.50684145  0.75172978     0.08480
H207        H  0.34428884  0.51299351  0.83343472     0.06010
H208        H  0.26365832  0.50542403  0.81116069     0.05850
O209        O  0.99968298  0.46966503  0.72693010    -0.73180
O210        O  0.99781970  0.54916685  0.72570782    -0.74160
O211        O  0.95927562  0.50854005  0.72535123    -0.62780
O212        O  0.03821600  0.51039838  0.72774789    -0.71190
O213        O  0.03953047  0.51047815  0.68411302    -0.70750
O214        O  0.96128820  0.50725188  0.68186143    -0.62000
O215        O  0.99852354  0.54779818  0.68215194    -0.74510
O216        O  0.00242980  0.46959324  0.68339771    -0.73290
Cu217      Cu  0.99870437  0.50943802  0.72803224     1.04560
Cu218      Cu  0.00047449  0.50871318  0.68143194     1.04330
C219        C  0.00180909  0.45724793  0.70516261     0.93010
C220        C  0.99730279  0.56088142  0.70350553     0.92150
C221        C  0.94784670  0.50800047  0.70305878     0.84300
C222        C  0.05117619  0.51073949  0.70626617     0.90570
O223        O  0.46287871  0.51053361  0.80267437    -0.73180
O224        O  0.54090663  0.51408438  0.80313894    -0.74160
O225        O  0.50071414  0.55145393  0.80277476    -0.62780
O226        O  0.50348176  0.47296976  0.80282740    -0.71190
O227        O  0.50269347  0.47268346  0.75920157    -0.70750
O228        O  0.50076066  0.55174120  0.75915674    -0.62000
O229        O  0.54165175  0.51355588  0.75958193    -0.74510
O230        O  0.46236647  0.51108860  0.75911641    -0.73290
Cu231      Cu  0.50194967  0.51224269  0.80430827     1.04560
Cu232      Cu  0.50190371  0.51223664  0.75767038     1.04330
C233        C  0.45022831  0.50999788  0.78107606     0.93010
C234        C  0.55366616  0.51492450  0.78160321     0.92150
C235        C  0.50056454  0.56397781  0.78107976     0.84300
C236        C  0.50323467  0.46046500  0.78107790     0.90570
C237        C  0.49740672  0.72096986  0.20209030     0.02890
C238        C  0.49722023  0.69436367  0.20925070    -0.13260
C239        C  0.49618727  0.67487590  0.18983674     0.00390
C240        C  0.49552904  0.68200561  0.16337027    -0.11790
C241        C  0.49644012  0.70846663  0.15591548     0.02880
C242        C  0.49741134  0.72794550  0.17539929    -0.11210
H243        H  0.49757440  0.68887126  0.22979623     0.08480
H244        H  0.49483712  0.66678897  0.14845138     0.06010
H245        H  0.49864519  0.74844290  0.16987827     0.05850
C246        C  0.49977043  0.80191942  0.28128429     0.02890
C247        C  0.49839459  0.82840159  0.27371615    -0.13260
C248        C  0.49668132  0.84821461  0.29278015     0.00390
C249        C  0.49604289  0.84121893  0.31937478    -0.11790
C250        C  0.49905727  0.81508183  0.32726210     0.02880
C251        C  0.50027460  0.79533952  0.30807166    -0.11210
H252        H  0.49924851  0.83350825  0.25308976     0.08480
H253        H  0.49412092  0.85645766  0.33414737     0.06010
H254        H  0.50179790  0.77495661  0.31390415     0.05850
O255        O  0.46087289  0.70235721  0.99163715    -0.73180
O256        O  0.53908851  0.70005601  0.99270935    -0.74160
O257        O  0.49970211  0.70075901  0.03106224    -0.62780
O258        O  0.50096563  0.70168490  0.95279484    -0.71190
O259        O  0.50179248  0.74529324  0.95285455    -0.70750
O260        O  0.50047098  0.74434636  0.03199495    -0.62000
O261        O  0.54079444  0.74358617  0.99293646    -0.74510
O262        O  0.46164453  0.74597632  0.99167803    -0.73290
Cu263      Cu  0.50003526  0.69976113  0.99196354     1.04560
Cu264      Cu  0.50120208  0.74639831  0.99236544     1.04330
C265        C  0.44891638  0.72434137  0.99167532     0.93010
C266        C  0.55235213  0.72132696  0.99319890     0.92150
C267        C  0.50034134  0.72227557  0.04390841     0.84300
C268        C  0.50192971  0.72346215  0.94047118     0.90570
C269        C  0.21112761  0.79937979  0.99356818     0.02890
C270        C  0.21837281  0.82605841  0.99455256    -0.13260
C271        C  0.19918721  0.84571136  0.99450576     0.00390
C272        C  0.17279045  0.83860574  0.99193841    -0.11790
C273        C  0.16522114  0.81224869  0.98967817     0.02880
C274        C  0.18445589  0.79263796  0.99096958    -0.11210
H275        H  0.23887832  0.83152315  0.99569778     0.08480
H276        H  0.15796361  0.85379935  0.99168520     0.06010
H277        H  0.17869327  0.77217489  0.98986985     0.05850
C278        C  0.29127894  0.71904085  0.99397549     0.02890
C279        C  0.31761602  0.72714382  0.99320757    -0.13260
C280        C  0.33773170  0.70853443  0.99309225     0.00390
C281        C  0.33148291  0.68173801  0.99299037    -0.11790
C282        C  0.30536705  0.67317930  0.99517496     0.02880
C283        C  0.28530666  0.69210482  0.99557106    -0.11210
H284        H  0.32244753  0.74787309  0.99282865     0.08480
H285        H  0.34718828  0.66756089  0.99139216     0.06010
H286        H  0.26502982  0.68596515  0.99732003     0.05850
C287        C  0.00318415  0.80257089  0.20089227     0.02890
C288        C  0.00397055  0.82934471  0.20779452    -0.13260
C289        C  0.00564708  0.84864803  0.18828386     0.00390
C290        C  0.00562668  0.84109196  0.16186329    -0.11790
C291        C  0.00405136  0.81458837  0.15455558     0.02880
C292        C  0.00271422  0.79535698  0.17419342    -0.11210
H293        H  0.00343355  0.83513388  0.22827698     0.08480
H294        H  0.00637544  0.85608788  0.14679754     0.06010
H295        H  0.00105189  0.77484715  0.16876131     0.05850
C296        C  0.99930838  0.72113474  0.27980700     0.02890
C297        C  0.00038332  0.69454007  0.27243360    -0.13260
C298        C  0.00122627  0.67487900  0.29161914     0.00390
C299        C  0.00073276  0.68185754  0.31826328    -0.11790
C300        C  0.99986760  0.70828186  0.32580292     0.02880
C301        C  0.99924848  0.72788494  0.30658628    -0.11210
H302        H  0.00115108  0.68917620  0.25183963     0.08480
H303        H  0.00121698  0.66669386  0.33316149     0.06010
H304        H  0.99865042  0.74834018  0.31246184     0.05850
O305        O  0.04109541  0.82069532  0.98956489    -0.73180
O306        O  0.96318152  0.82281439  0.98912756    -0.74160
O307        O  0.00157204  0.82256458  0.02897912    -0.62780
O308        O  0.00230064  0.82068914  0.95034828    -0.71190
O309        O  0.00138192  0.77707486  0.95120585    -0.70750
O310        O  0.00044835  0.77903487  0.03033884    -0.62000
O311        O  0.96105287  0.77944219  0.99006816    -0.74510
O312        O  0.04045744  0.77714934  0.99116863    -0.73290
Cu313      Cu  0.00211624  0.82312939  0.98953558     1.04560
Cu314      Cu  0.00078784  0.77657618  0.99076768     1.04330
C315        C  0.05317079  0.79880095  0.99013054     0.93010
C316        C  0.94961430  0.80178894  0.98942611     0.92150
C317        C  0.00065459  0.80122165  0.04209629     0.84300
C318        C  0.00189709  0.79862788  0.93844643     0.90570
C319        C  0.20999457  0.71853529  0.48871416     0.02890
C320        C  0.21638451  0.69171982  0.48987925    -0.13260
C321        C  0.19650661  0.67264771  0.49064907     0.00390
C322        C  0.17026440  0.68068279  0.49029662    -0.11790
C323        C  0.16358679  0.70719031  0.48766533     0.02880
C324        C  0.18353882  0.72616432  0.48760583    -0.11210
H325        H  0.23675007  0.68576977  0.49001132     0.08480
H326        H  0.15483555  0.66603916  0.49136010     0.06010
H327        H  0.17856080  0.74677794  0.48613748     0.05850
C328        C  0.29033910  0.79856260  0.49334076     0.02890
C329        C  0.28345362  0.82520905  0.49120948    -0.13260
C330        C  0.30288840  0.84477694  0.49161590     0.00390
C331        C  0.32926519  0.83726770  0.49326276    -0.11790
C332        C  0.33655134  0.81079095  0.49475261     0.02880
C333        C  0.31688845  0.79148363  0.49520706    -0.11210
H334        H  0.26306885  0.83058700  0.48882273     0.08480
H335        H  0.34438217  0.85226547  0.49322013     0.06010
H336        H  0.32213949  0.77099614  0.49720447     0.05850
O337        O  0.99945963  0.70001409  0.44939409    -0.73180
O338        O  0.00368325  0.69817415  0.52784699    -0.74160
O339        O  0.96257930  0.69727464  0.49051711    -0.62780
O340        O  0.04027839  0.70073314  0.48644113    -0.71190
O341        O  0.03929977  0.74421407  0.48922287    -0.70750
O342        O  0.96007034  0.74068503  0.49073450    -0.62000
O343        O  0.00050864  0.74157910  0.52958885    -0.74510
O344        O  0.99894339  0.74362201  0.45038735    -0.73290
Cu345      Cu  0.00152195  0.69761090  0.48857267     1.04560
Cu346      Cu  0.99960898  0.74413176  0.49007078     1.04330
C347        C  0.99887281  0.72204477  0.43753415     0.93010
C348        C  0.00296023  0.71946299  0.54112003     0.92150
C349        C  0.94888543  0.71816901  0.49045604     0.84300
C350        C  0.05216570  0.72277818  0.48725274     0.90570
O351        O  0.46093418  0.77648146  0.49201735    -0.73180
O352        O  0.54020690  0.77664816  0.48907209    -0.74160
O353        O  0.50191112  0.77521200  0.52996956    -0.62780
O354        O  0.49914505  0.77759320  0.45095820    -0.71190
O355        O  0.49944210  0.82113015  0.45275456    -0.70750
O356        O  0.50191103  0.81883956  0.53107280    -0.62000
O357        O  0.53971244  0.82020753  0.49022062    -0.74510
O358        O  0.46162109  0.82001213  0.49363574    -0.73290
Cu359      Cu  0.50054952  0.77488732  0.49043874     1.04560
Cu360      Cu  0.50066925  0.82149778  0.49195587     1.04330
C361        C  0.44889963  0.79841503  0.49383936     0.93010
C362        C  0.55233838  0.79866167  0.48881821     0.92150
C363        C  0.50207261  0.79675499  0.54284236     0.84300
C364        C  0.49909851  0.79985407  0.43944233     0.90570
C365        C  0.50112500  0.22187519  0.28228202     0.02890
C366        C  0.50199574  0.22812756  0.30918811    -0.13260
C367        C  0.49971307  0.20829538  0.32821808     0.00390
C368        C  0.49690003  0.18213813  0.31987329    -0.11790
C369        C  0.49671163  0.17557889  0.29314576     0.02880
C370        C  0.49905372  0.19551975  0.27435972    -0.11210
H371        H  0.50495059  0.24833350  0.31516655     0.08480
H372        H  0.49538889  0.16659900  0.33431268     0.06010
H373        H  0.49895990  0.19058553  0.25364422     0.05850
C374        C  0.50637427  0.30174020  0.20213916     0.02890
C375        C  0.50658015  0.32872595  0.20815204    -0.13260
C376        C  0.50644181  0.34742744  0.18790528     0.00390
C377        C  0.50484717  0.33892700  0.16177509    -0.11790
C378        C  0.50469402  0.31217487  0.15559468     0.02880
C379        C  0.50553742  0.29357204  0.17577033    -0.11210
H380        H  0.50725650  0.33510356  0.22845711     0.08480
H381        H  0.50384600  0.35324475  0.14608291     0.06010
H382        H  0.50501215  0.27282995  0.17100210     0.05850
O383        O  0.46128595  0.01270402  0.25595853    -0.73180
O384        O  0.54043330  0.01069491  0.25570242    -0.74160
O385        O  0.49975731  0.97214485  0.25618782    -0.62780
O386        O  0.50171704  0.05157028  0.25554749    -0.71190
O387        O  0.50117103  0.05161903  0.29916797    -0.70750
O388        O  0.50013107  0.97329733  0.29976377    -0.62000
O389        O  0.53988769  0.01137308  0.29924110    -0.74510
O390        O  0.46177145  0.01340194  0.29956364    -0.73290
Cu391      Cu  0.50082100  0.01179994  0.25424181     1.04560
Cu392      Cu  0.50078146  0.01245671  0.30086836     1.04330
C393        C  0.44917021  0.01351146  0.27794276     0.93010
C394        C  0.55259117  0.01021333  0.27763002     0.92150
C395        C  0.50009658  0.96030994  0.27830248     0.84300
C396        C  0.50108900  0.06398069  0.27740846     0.90570
O397        O  0.46224230  0.32382193  0.99333796    -0.73180
O398        O  0.54019140  0.31875366  0.99238305    -0.74160
O399        O  0.50125833  0.32216567  0.95359472    -0.62780
O400        O  0.50131795  0.32015262  0.03228054    -0.71190
O401        O  0.49928874  0.27657646  0.03142699    -0.70750
O402        O  0.49781180  0.27868847  0.95238534    -0.62000
O403        O  0.53801743  0.27521597  0.99125475    -0.74510
O404        O  0.45909519  0.28045575  0.99279751    -0.73290
Cu405      Cu  0.50134614  0.32269236  0.99295459     1.04560
Cu406      Cu  0.49843072  0.27616167  0.99191015     1.04330
C407        C  0.44822174  0.30306647  0.99353177     0.93010
C408        C  0.55146061  0.29642792  0.99154390     0.92150
C409        C  0.49957477  0.30075539  0.94062593     0.84300
C410        C  0.50035205  0.29813857  0.04420707     0.90570
C411        C  0.21053734  0.29842092  0.49172662     0.02890
C412        C  0.21723781  0.32519751  0.49027601    -0.13260
C413        C  0.19761833  0.34431140  0.48824218     0.00390
C414        C  0.17139032  0.33632379  0.48672553    -0.11790
C415        C  0.16418386  0.30994662  0.48952756     0.02880
C416        C  0.18392135  0.29097581  0.49197920    -0.11210
H417        H  0.23761477  0.33110150  0.49112998     0.08480
H418        H  0.15623707  0.35105469  0.48459125     0.06010
H419        H  0.17870080  0.27052986  0.49461956     0.05850
C420        C  0.29071982  0.21831753  0.48946633     0.02890
C421        C  0.31742404  0.22514331  0.48762144    -0.13260
C422        C  0.33681515  0.20556508  0.48707332     0.00390
C423        C  0.32914060  0.17915306  0.48902603    -0.11790
C424        C  0.30263514  0.17216831  0.49037978     0.02880
C425        C  0.28350856  0.19174045  0.49119406    -0.11210
H426        H  0.32302688  0.24562198  0.48615441     0.08480
H427        H  0.34382886  0.16383068  0.48942114     0.06010
H428        H  0.26302142  0.18626778  0.49276399     0.05850
O429        O  0.99917615  0.27782148  0.52995549    -0.73180
O430        O  0.00126803  0.27501655  0.45078867    -0.74160
O431        O  0.03967905  0.27625731  0.49143531    -0.62780
O432        O  0.96069834  0.27648688  0.48934173    -0.71190
O433        O  0.96135627  0.31996991  0.48654752    -0.70750
O434        O  0.03934927  0.31981492  0.49127004    -0.62000
O435        O  0.00254136  0.31862040  0.44979230    -0.74510
O436        O  0.99796686  0.32131199  0.52808553    -0.73290
Cu437      Cu  0.00020382  0.27480523  0.49043049     1.04560
Cu438      Cu  0.00034024  0.32139315  0.48888118     1.04330
C439        C  0.99790408  0.30013428  0.54143810     0.93010
C440        C  0.00224773  0.29652634  0.43795519     0.92150
C441        C  0.05188630  0.29818356  0.49220347     0.84300
C442        C  0.94867567  0.29835394  0.48710426     0.90570
O443        O  0.31193198  0.00882287  0.52946613    -0.73180
O444        O  0.31043602  0.00973005  0.45128165    -0.74160
O445        O  0.31025998  0.04872417  0.49072876    -0.62780
O446        O  0.31208355  0.97038949  0.48941082    -0.71190
O447        O  0.26860508  0.96904982  0.49043168    -0.70750
O448        O  0.26671456  0.04809131  0.49232421    -0.62000
O449        O  0.26689466  0.00940465  0.45172123    -0.74510
O450        O  0.26845767  0.00786828  0.53098308    -0.73290
Cu451      Cu  0.31263109  0.00953661  0.49025818     1.04560
Cu452      Cu  0.26607293  0.00859993  0.49142874     1.04330
C453        C  0.29063687  0.00771651  0.54262581     0.93010
C454        C  0.28860152  0.00939929  0.43911977     0.92150
C455        C  0.28835020  0.06073271  0.49158309     0.84300
C456        C  0.29071496  0.95732475  0.48917858     0.90570
C457        C  0.20947253  0.21888201  0.99273833     0.02890
C458        C  0.18295061  0.22517264  0.98881667    -0.13260
C459        C  0.16380708  0.20533843  0.98841519     0.00390
C460        C  0.17139392  0.17924483  0.99247596    -0.11790
C461        C  0.19775175  0.17261277  0.99627517     0.02880
C462        C  0.21680877  0.19250859  0.99601928    -0.11210
H463        H  0.17729373  0.24541268  0.98567741     0.08480
H464        H  0.15664427  0.16389993  0.99253723     0.06010
H465        H  0.23727848  0.18753029  0.99864666     0.05850
C466        C  0.28903866  0.29979607  0.98808752     0.02890
C467        C  0.31583635  0.29403105  0.99132148    -0.13260
C468        C  0.33493403  0.31389490  0.98889074     0.00390
C469        C  0.32647497  0.33974327  0.98430289    -0.13950
C470        C  0.29983558  0.34597826  0.98209227     0.02880
C471        C  0.28116173  0.32586336  0.98400879    -0.11210
H472        H  0.32155815  0.27420318  0.99620285     0.08480
H473        H  0.34074528  0.35544189  0.98288323     0.06010
H474        H  0.26051319  0.33044828  0.98215748     0.05850
C475        C  0.21051085  0.00969855  0.20238990     0.02890
C476        C  0.18396039  0.01282408  0.20900729    -0.13260
C477        C  0.16475251  0.01269665  0.18935320     0.00390
C478        C  0.17229917  0.00891116  0.16315005    -0.11790
C479        C  0.19871665  0.00581086  0.15630089     0.02880
C480        C  0.21782606  0.00658083  0.17599361    -0.11210
H481        H  0.17832921  0.01567646  0.22934550     0.08480
H482        H  0.15749076  0.00854385  0.14792408     0.06010
H483        H  0.23833680  0.00442002  0.17084521     0.05850
C484        C  0.29151526  0.01246866  0.28135100     0.02890
C485        C  0.31818128  0.01384986  0.27436530    -0.13260
C486        C  0.33759896  0.01445326  0.29380933     0.00390
C487        C  0.33025036  0.01204759  0.32020500    -0.11790
C488        C  0.30385918  0.00960520  0.32743766     0.02880
C489        C  0.28451918  0.01033395  0.30798218    -0.11210
H490        H  0.32381670  0.01467237  0.25386191     0.08480
H491        H  0.34522725  0.01195773  0.33526960     0.06010
H492        H  0.26404240  0.00898992  0.31355187     0.05850
C493        C  0.00109197  0.22139717  0.20011265     0.02890
C494        C  0.00526065  0.19550935  0.20857070    -0.13260
C495        C  0.00917034  0.17538185  0.19025824     0.00390
C496        C  0.00946944  0.18139466  0.16348337    -0.11790
C497        C  0.00471037  0.20697692  0.15441082     0.02880
C498        C  0.00019983  0.22692265  0.17304025    -0.11210
H499        H  0.00567729  0.19105687  0.22936620     0.08480
H500        H  0.01271309  0.16564160  0.14954420     0.06010
H501        H  0.99551528  0.24661348  0.16670554     0.05850
C502        C  0.00010262  0.30197306  0.28019275     0.02890
C503        C  0.00116646  0.29381667  0.30653337    -0.13260
C504        C  0.00163941  0.31240301  0.32682493     0.00390
C505        C  0.00116178  0.33917999  0.32082510    -0.11790
C506        C  0.99911861  0.34766329  0.29472433     0.02880
C507        C  0.99871471  0.32893731  0.27444775    -0.11210
H508        H  0.00170954  0.27308579  0.31123441     0.08480
H509        H  0.00207366  0.35345608  0.33662072     0.06010
H510        H  0.99705439  0.33532348  0.25423637     0.05850
O511        O  0.96281058  0.01407544  0.18035717    -0.73180
O512        O  0.04087892  0.01275426  0.18170766    -0.74160
O513        O  0.00160644  0.97372256  0.18016644    -0.62780
O514        O  0.00313212  0.05218242  0.18212596    -0.71190
O515        O  0.00168520  0.05141627  0.22573901    -0.70750
O516        O  0.00031848  0.97243271  0.22375586    -0.62000
O517        O  0.04050760  0.01145783  0.22529535    -0.74510
O518        O  0.96149969  0.01249154  0.22392175    -0.73290
Cu519      Cu  0.00201415  0.01312613  0.17960810     1.04560
Cu520      Cu  0.00090361  0.01186473  0.22625549     1.04330
C521        C  0.94980600  0.01391490  0.20179687     0.93010
C522        C  0.05305946  0.01240137  0.20355417     0.92150
C523        C  0.00118235  0.96070417  0.20157907     0.84300
C524        C  0.00318454  0.06412223  0.20418161     0.90570
O525        O  0.19247430  0.00968108  0.95460976    -0.73180
O526        O  0.19328495  0.00769593  0.03270082    -0.74160
O527        O  0.19266218  0.04814403  0.99513061    -0.62780
O528        O  0.19306048  0.96994080  0.99308536    -0.71190
O529        O  0.23658752  0.96983427  0.99207382    -0.70750
O530        O  0.23616060  0.04909323  0.99395851    -0.62000
O531        O  0.23682282  0.00856117  0.03255162    -0.74510
O532        O  0.23598101  0.01035948  0.95338082    -0.73290
Cu533      Cu  0.19142908  0.00895036  0.99379898     1.04560
Cu534      Cu  0.23799473  0.00953160  0.99291862     1.04330
C535        C  0.21388957  0.00974553  0.94160242     0.93010
C536        C  0.21504585  0.00744255  0.04497459     0.92150
C537        C  0.21417098  0.06101470  0.99515747     0.84300
C538        C  0.21472731  0.95749945  0.99279486     0.90570
O539        O  0.99733629  0.19983805  0.94862674    -0.73180
O540        O  0.00210975  0.19603342  0.02665395    -0.74160
O541        O  0.96072271  0.19831137  0.99010523    -0.62780
O542        O  0.03899325  0.19787395  0.98512588    -0.71190
O543        O  0.03984579  0.24124279  0.98910471    -0.70750
O544        O  0.96088586  0.24189590  0.99046200    -0.62000
O545        O  0.00117203  0.23936837  0.02958517    -0.74510
O546        O  0.99973460  0.24337482  0.95024313    -0.73290
Cu547      Cu  0.99981589  0.19656375  0.98756295     1.04560
Cu548      Cu  0.00044650  0.24306441  0.98995104     1.04330
C549        C  0.99786233  0.22203525  0.93710694     0.93010
C550        C  0.00178261  0.21682178  0.04063336     0.92150
C551        C  0.94842169  0.22010292  0.99072211     0.84300
C552        C  0.05183573  0.21938734  0.98666932     0.90570
C553        C  0.21205336  0.51042565  0.28115877     0.02890
C554        C  0.21881955  0.50785188  0.30782747    -0.13260
C555        C  0.19930448  0.50847489  0.32733290     0.00390
C556        C  0.17300965  0.51078635  0.31973629    -0.11790
C557        C  0.16587221  0.51269761  0.29325452     0.02880
C558        C  0.18558511  0.51302385  0.27404040    -0.11210
H559        H  0.23912163  0.50494724  0.31326209     0.08480
H560        H  0.15783326  0.51085799  0.33466730     0.06010
H561        H  0.18041798  0.51535716  0.25355376     0.05850
C562        C  0.28982863  0.50634871  0.19852183     0.02890
C563        C  0.31665973  0.50640365  0.20488726    -0.13260
C564        C  0.33577070  0.50880458  0.18515817     0.00390
C565        C  0.32762076  0.51037465  0.15890429    -0.11790
C566        C  0.30112004  0.50813684  0.15209474     0.02880
C567        C  0.28216157  0.50722660  0.17201799    -0.11210
H568        H  0.32252080  0.50421069  0.22518605     0.08480
H569        H  0.34211703  0.51238761  0.14343909     0.06010
H570        H  0.26155928  0.50682719  0.16690381     0.05850
O571        O  0.00183930  0.55165152  0.29787633    -0.73180
O572        O  0.00053910  0.47335233  0.30044703    -0.74160
O573        O  0.04033479  0.51258027  0.30063022    -0.62780
O574        O  0.96216665  0.51294654  0.29748031    -0.71190
O575        O  0.96361173  0.50957952  0.25397329    -0.70750
O576        O  0.04244026  0.51185835  0.25709330    -0.62000
O577        O  0.00382327  0.47119163  0.25702554    -0.74510
O578        O  0.00204834  0.55047905  0.25425310    -0.73290
Cu579      Cu  0.00117245  0.51261642  0.30057375     1.04560
Cu580      Cu  0.00306707  0.51069462  0.25399242     1.04330
C581        C  0.00200373  0.56343107  0.27580648     0.93010
C582        C  0.00194880  0.45986057  0.27932968     0.92150
C583        C  0.05375022  0.51295673  0.27944856     0.84300
C584        C  0.95058574  0.51117382  0.27535504     0.90570
O585        O  0.26195222  0.47015292  0.98730715    -0.73180
O586        O  0.26460859  0.54961497  0.98952789    -0.74160
O587        O  0.26369158  0.51072176  0.94883595    -0.62780
O588        O  0.26271494  0.50914511  0.02814069    -0.71190
O589        O  0.30612989  0.50630787  0.02793694    -0.70750
O590        O  0.30718134  0.50982127  0.94992769    -0.62000
O591        O  0.30798243  0.54735618  0.99103516    -0.74510
O592        O  0.30546220  0.46937391  0.98656636    -0.73290
Cu593      Cu  0.26161973  0.50999324  0.98845941     1.04560
Cu594      Cu  0.30810520  0.50824781  0.98891300     1.04330
C595        C  0.28349411  0.45738793  0.98597169     0.93010
C596        C  0.28697167  0.56092806  0.99093747     0.92150
C597        C  0.28579065  0.51007396  0.93698005     0.84300
C598        C  0.28445763  0.50734425  0.04044776     0.90570
O599        O  0.18578976  0.50941427  0.53045139    -0.73180
O600        O  0.18707946  0.50661085  0.45226962    -0.74160
O601        O  0.18658712  0.46925306  0.49269872    -0.62780
O602        O  0.18641915  0.54742515  0.48987173    -0.71190
O603        O  0.22990693  0.54820104  0.49153720    -0.70750
O604        O  0.23009818  0.46913933  0.49251478    -0.62000
O605        O  0.23057051  0.50791389  0.45247976    -0.74510
O606        O  0.22928815  0.50935650  0.53161671    -0.73290
Cu607      Cu  0.18501017  0.50825377  0.49131729     1.04560
Cu608      Cu  0.23155478  0.50871151  0.49207021     1.04330
C609        C  0.20716618  0.50938680  0.54344286     0.93010
C610        C  0.20889584  0.50637492  0.43999130     0.92150
C611        C  0.20824904  0.45680670  0.49305145     0.84300
C612        C  0.20799178  0.56018621  0.49011324     0.90570
O613        O  0.53937635  0.19953520  0.49441333    -0.73180
O614        O  0.46124018  0.19966262  0.49156177    -0.74160
O615        O  0.50195815  0.19881705  0.45419981    -0.62780
O616        O  0.49868516  0.20004579  0.53256040    -0.71190
O617        O  0.49970863  0.24365382  0.53254353    -0.70750
O618        O  0.50142279  0.24233261  0.45311147    -0.62000
O619        O  0.46091880  0.24322666  0.49197792    -0.74510
O620        O  0.53998355  0.24312345  0.49368924    -0.73290
Cu621      Cu  0.50028846  0.19806916  0.49330389     1.04560
Cu622      Cu  0.50049183  0.24468279  0.49286582     1.04330
C623        C  0.55204992  0.22117785  0.49395040     0.93010
C624        C  0.44869038  0.22131451  0.49105895     0.92150
C625        C  0.50244465  0.22019114  0.44121225     0.84300
C626        C  0.49881643  0.22186477  0.54492220     0.90570
O627        O  0.45958887  0.50969676  0.22097260    -0.73180
O628        O  0.53860499  0.51301824  0.22367580    -0.74160
O629        O  0.49770756  0.55066536  0.22320372    -0.62780
O630        O  0.50046243  0.47180873  0.22176873    -0.71190
O631        O  0.50390143  0.47280484  0.17831283    -0.70750
O632        O  0.49758210  0.55115893  0.17955268    -0.62000
O633        O  0.53953149  0.51546362  0.18017206    -0.74510
O634        O  0.46178978  0.50882563  0.17747371    -0.73290
Cu635      Cu  0.49903298  0.51124756  0.22398599     1.04560
Cu636      Cu  0.50074033  0.51205874  0.17739788     1.04330
C637        C  0.44831508  0.50830698  0.19859680     0.93010
C638        C  0.55140092  0.51550696  0.20219700     0.92150
C639        C  0.49707658  0.56321507  0.20154657     0.84300
C640        C  0.50277010  0.45990964  0.19977798     0.90570
C641        C  0.70972447  0.50990443  0.20223298     0.02890
C642        C  0.68339660  0.51317331  0.20979416    -0.13260
C643        C  0.66344477  0.51316314  0.19083450     0.00390
C644        C  0.67024330  0.51054192  0.16425499    -0.11790
C645        C  0.69631483  0.50682756  0.15637958     0.02880
C646        C  0.71606810  0.50681886  0.17553663    -0.11210
H647        H  0.67857982  0.51622388  0.23030129     0.08480
H648        H  0.65501839  0.51152083  0.14948795     0.06010
H649        H  0.73636395  0.50432028  0.16974705     0.05850
C650        C  0.79305691  0.51339009  0.27883782     0.02890
C651        C  0.81931961  0.51204661  0.27060780    -0.13260
C652        C  0.83946685  0.51142173  0.28916716     0.00390
C653        C  0.83334822  0.51110931  0.31596837    -0.11790
C654        C  0.80730200  0.51318156  0.32462103     0.02880
C655        C  0.78716589  0.51397005  0.30584000    -0.11210
H656        H  0.82407555  0.51165038  0.24986113     0.08480
H657        H  0.84909838  0.50951167  0.33011635     0.06010
H658        H  0.76691755  0.51532675  0.31215961     0.05850
O659        O  0.68994857  0.50819576  0.95269798    -0.73180
O660        O  0.68970102  0.51107108  0.03122966    -0.74160
O661        O  0.69147543  0.54895909  0.99008279    -0.62780
O662        O  0.68796817  0.47110470  0.99357563    -0.71190
O663        O  0.73124120  0.46835500  0.99337024    -0.70750
O664        O  0.73493862  0.54795148  0.99114668    -0.62000
O665        O  0.73313094  0.50904622  0.03195184    -0.74510
O666        O  0.73341044  0.50721578  0.95253946    -0.73290
Cu667      Cu  0.68837526  0.50998569  0.99195065     1.04560
Cu668      Cu  0.73479564  0.50812789  0.99229427     1.04330
C669        C  0.71161200  0.50711474  0.94015318     0.93010
C670        C  0.71116390  0.50972649  0.04404349     0.92150
C671        C  0.71351094  0.56087019  0.98970990     0.84300
C672        C  0.70869179  0.45722958  0.99367755     0.90570
C673        C  0.79035532  0.21904658  0.98437381     0.02890
C674        C  0.81700233  0.22626725  0.98402505    -0.13260
C675        C  0.83657143  0.20697105  0.98380692     0.00390
C676        C  0.82922382  0.18042263  0.98412513    -0.11790
C677        C  0.80290938  0.17293402  0.98651617     0.02880
C678        C  0.78345814  0.19231168  0.98593864    -0.11210
H679        H  0.82243985  0.24682056  0.98493730     0.08480
H680        H  0.84426215  0.16542478  0.98374846     0.06010
H681        H  0.76301023  0.18666150  0.98739311     0.05850
C682        C  0.70928824  0.29782390  0.99165696     0.02890
C683        C  0.68280178  0.29017118  0.99146932    -0.13260
C684        C  0.66312091  0.30897189  0.99438520     0.00390
C685        C  0.67009323  0.33508468  0.99916768    -0.11790
C686        C  0.69622681  0.34368187  0.99680923     0.02880
C687        C  0.71582437  0.32470045  0.99272633    -0.11210
H688        H  0.67756620  0.26973984  0.98854108     0.08480
H689        H  0.65459948  0.34908049  0.00307646     0.06010
H690        H  0.73602756  0.33059133  0.99003974     0.05850
C691        C  0.79169548  0.00637310  0.20095743     0.02890
C692        C  0.81827389  0.00921097  0.20789551    -0.13260
C693        C  0.83779999  0.00989357  0.18842443     0.00390
C694        C  0.83048003  0.00839242  0.16196553    -0.11790
C695        C  0.80421243  0.00493537  0.15465289     0.02880
C696        C  0.78483169  0.00432509  0.17425602    -0.11210
H697        H  0.82370540  0.01139459  0.22834419     0.08480
H698        H  0.84545563  0.00970894  0.14689425     0.06010
H699        H  0.76443516  0.00203284  0.16877276     0.05850
C700        C  0.71044071  0.01012269  0.28045657     0.02890
C701        C  0.68398719  0.00621046  0.27377782    -0.13260
C702        C  0.66445756  0.00651737  0.29322638     0.00390
C703        C  0.67177716  0.01090954  0.31941027    -0.11790
C704        C  0.69809686  0.01412785  0.32658099     0.02880
C705        C  0.71743333  0.01352775  0.30696599    -0.11210
H706        H  0.67869151  0.00267364  0.25347790     0.08480
H707        H  0.65682021  0.01165095  0.33448294     0.06010
H708        H  0.73786178  0.01597530  0.31226374     0.05850
O709        O  0.81113167  0.01187773  0.95194657    -0.73180
O710        O  0.81022719  0.00769190  0.03010396    -0.74160
O711        O  0.81134005  0.97075336  0.98932047    -0.62780
O712        O  0.80980257  0.04889880  0.99305327    -0.71190
O713        O  0.76635690  0.04841065  0.99077691    -0.70750
O714        O  0.76789577  0.96921666  0.98989475    -0.62000
O715        O  0.76673408  0.00822989  0.03021823    -0.74510
O716        O  0.76772551  0.00932153  0.95064893    -0.73290
Cu717      Cu  0.81205350  0.00984143  0.99108370     1.04560
Cu718      Cu  0.76556875  0.00876548  0.99035943     1.04330
C719        C  0.78981161  0.01121215  0.93886648     0.93010
C720        C  0.78852835  0.00728657  0.04259472     0.92150
C721        C  0.79005399  0.95755059  0.98985357     0.84300
C722        C  0.78798677  0.06107178  0.99206506     0.90570
C723        C  0.70993545  0.21848761  0.48931436     0.02890
C724        C  0.68335978  0.22581228  0.48985563    -0.13260
C725        C  0.66372954  0.20661444  0.49161343     0.00390
C726        C  0.67087788  0.18028212  0.49436665    -0.11790
C727        C  0.69716826  0.17247919  0.49290663     0.02880
C728        C  0.71670369  0.19175336  0.49038191    -0.11210
H729        H  0.67800364  0.24632602  0.48834402     0.08480
H730        H  0.65565745  0.16556025  0.49668064     0.06010
H731        H  0.73708875  0.18604168  0.48905748     0.05850
C732        C  0.79039400  0.29862281  0.48983771     0.02890
C733        C  0.81702677  0.29155370  0.48856510    -0.13260
C734        C  0.83664207  0.31096067  0.48856643     0.00390
C735        C  0.82935082  0.33745812  0.48925530    -0.11790
C736        C  0.80298237  0.34471377  0.48978121     0.02880
C737        C  0.78350265  0.32532707  0.49003175    -0.11210
H738        H  0.82242045  0.27102676  0.48746218     0.08480
H739        H  0.84430826  0.35263032  0.48917440     0.06010
H740        H  0.76305008  0.33102278  0.48995103     0.05850
O741        O  0.73445744  0.96935896  0.49037294    -0.73180
O742        O  0.73225015  0.04848460  0.49154634    -0.74160
O743        O  0.73283655  0.00830705  0.53055090    -0.62780
O744        O  0.73397596  0.00959043  0.45117406    -0.71190
O745        O  0.69046526  0.00912925  0.45094834    -0.70750
O746        O  0.68938176  0.00672571  0.52931862    -0.62000
O747        O  0.68879166  0.04664376  0.49112067    -0.74510
O748        O  0.69092561  0.96850474  0.48876323    -0.73290
Cu749      Cu  0.73497837  0.00891407  0.49094699     1.04560
Cu750      Cu  0.68844817  0.00760738  0.49006751     1.04330
C751        C  0.71288629  0.95660672  0.48929272     0.93010
C752        C  0.70999133  0.05996626  0.49106036     0.92150
C753        C  0.71071475  0.00783280  0.54236746     0.84300
C754        C  0.71226845  0.01010822  0.43864516     0.90570
O755        O  0.81121249  0.50796645  0.52799219    -0.73180
O756        O  0.81245743  0.50823941  0.44993227    -0.74160
O757        O  0.81188259  0.54698907  0.48905288    -0.62780
O758        O  0.81162920  0.46869433  0.48849256    -0.71190
O759        O  0.76804896  0.46843127  0.48826954    -0.70750
O760        O  0.76836984  0.54741700  0.48879206    -0.62000
O761        O  0.76897336  0.50803719  0.44868652    -0.74510
O762        O  0.76766888  0.50767362  0.52800477    -0.73290
Cu763      Cu  0.81324807  0.50789256  0.48892798     1.04560
Cu764      Cu  0.76666575  0.50784498  0.48841717     1.04330
C765        C  0.78944578  0.50824854  0.54036479     0.93010
C766        C  0.79113060  0.50850321  0.43688789     0.92150
C767        C  0.79030520  0.55960022  0.48872899     0.84300
C768        C  0.78988724  0.45625331  0.48816873     0.90570
C769        C  0.80179938  0.38680592  0.46582910    -0.09390
C770        C  0.79630206  0.37278429  0.48886391     0.06800
C771        C  0.78716939  0.38625331  0.51123708    -0.03160
C772        C  0.78395645  0.41350864  0.51036740    -0.07610
C773        C  0.79026680  0.42753451  0.48756463     0.05920
C774        C  0.79894992  0.41403743  0.46508643    -0.02640
Br775      Br  0.80753757  0.43209410  0.43316792    -0.02330
H776        H  0.80904410  0.37658142  0.44861126     0.09830
H777        H  0.77766313  0.42390704  0.52785515     0.07850
Br778      Br  0.78123774  0.36865310  0.54395256    -0.02760
C779        C  0.68797168  0.12862151  0.47426774    -0.09390
C780        C  0.70311456  0.14399912  0.49142314     0.06800
C781        C  0.72190928  0.13152891  0.50743717    -0.03160
C782        C  0.72470067  0.10413960  0.50633564    -0.07610
C783        C  0.70843912  0.08883667  0.49012881     0.05920
C784        C  0.69006620  0.10141788  0.47384340    -0.02640
Br785      Br  0.66721252  0.08285108  0.45029235    -0.02330
H786        H  0.67385508  0.13783488  0.46140959     0.09830
H787        H  0.73874983  0.09466510  0.51909312     0.07850
Br788      Br  0.74249767  0.15028704  0.53281848    -0.02760
C789        C  0.73095324  0.25778191  0.50882804    -0.09390
C790        C  0.73056029  0.23893028  0.48873079     0.06800
C791        C  0.74997486  0.23978397  0.46899733    -0.03160
C792        C  0.76937309  0.25924964  0.46978435    -0.07610
C793        C  0.76976349  0.27811722  0.48993689     0.05920
C794        C  0.75035174  0.27715401  0.50968035    -0.02640
Br795      Br  0.75020297  0.30059906  0.53922183    -0.02330
H796        H  0.71634025  0.25709118  0.52428644     0.09830
H797        H  0.78400410  0.25991956  0.45434925     0.07850
Br798      Br  0.75012072  0.21585459  0.43982475    -0.02760
C799        C  0.72333649  0.99874098  0.36562334    -0.09390
C800        C  0.70499970  0.01625155  0.35484035     0.06800
C801        C  0.69141474  0.03343954  0.37181535    -0.03160
C802        C  0.69450312  0.03120570  0.39892883    -0.07610
C803        C  0.71178438  0.01286611  0.40979126     0.05920
C804        C  0.72698500  0.99711309  0.39288204    -0.02640
Br805      Br  0.75104685  0.97144620  0.40600929    -0.02330
H806        H  0.73395148  0.98539396  0.35290762     0.09830
H807        H  0.68318727  0.04386159  0.41166095     0.07850
Br808      Br  0.66885881  0.06082625  0.35922760    -0.02760
C809        C  0.77856205  0.01990378  0.11561909    -0.09390
C810        C  0.79737950  0.00290409  0.12636822     0.06800
C811        C  0.81093557  0.98561346  0.10946590    -0.03160
C812        C  0.80713541  0.98707555  0.08238293    -0.07610
C813        C  0.78934341  0.00492608  0.07149624     0.05920
C814        C  0.77434289  0.02091099  0.08840084    -0.02640
Br815      Br  0.74969480  0.04602775  0.07529187    -0.02330
H816        H  0.76792073  0.03325262  0.12831064     0.09830
H817        H  0.81831988  0.97421275  0.06966876     0.07850
Br818      Br  0.83438706  0.95904315  0.12215536    -0.02760
C819        C  0.75118211  0.99101864  0.26195313    -0.09390
C820        C  0.73098737  0.00949230  0.25990331     0.06800
C821        C  0.73071699  0.02672647  0.23826426    -0.03160
C822        C  0.75057756  0.02530402  0.21930898    -0.07610
C823        C  0.77088798  0.00684853  0.22138851     0.05920
C824        C  0.77084163  0.98938459  0.24287251    -0.02640
Br825      Br  0.79571819  0.96155090  0.24634558    -0.02330
H826        H  0.75132198  0.97736651  0.27824106     0.09830
H827        H  0.75035718  0.03893179  0.20300728     0.07850
Br828      Br  0.70450445  0.05339253  0.23427457    -0.02760
C829        C  0.77845150  0.13247455  0.97317394    -0.09390
C830        C  0.79622917  0.14482464  0.99027223     0.06800
C831        C  0.80868790  0.12968374  0.00980077    -0.03160
C832        C  0.80501348  0.10255028  0.01044959    -0.07610
C833        C  0.78836134  0.09000710  0.99251256     0.05920
C834        C  0.77432847  0.10526140  0.97424923    -0.02640
Br835      Br  0.75125641  0.08975735  0.94882672    -0.02330
H836        H  0.76858664  0.14384701  0.95822451     0.09830
H837        H  0.81540286  0.09109986  0.02499302     0.07850
Br838      Br  0.83033666  0.14489540  0.03669115    -0.02760
C839        C  0.75177835  0.23878915  0.00659945    -0.09390
C840        C  0.76970807  0.23940104  0.98567793     0.06800
C841        C  0.76759398  0.25940436  0.96666988    -0.03160
C842        C  0.74799016  0.27843404  0.96903538    -0.07610
C843        C  0.73005125  0.27770859  0.98992388     0.05920
C844        C  0.73208915  0.25766173  0.00885273    -0.02640
Br845      Br  0.70935348  0.25582662  0.03889642    -0.02330
H846        H  0.75332458  0.22372021  0.02149435     0.09830
H847        H  0.74639524  0.29356794  0.95421411     0.07850
Br848      Br  0.78968143  0.26073690  0.93619626    -0.02760
C849        C  0.72584078  0.41274818  0.00564501    -0.09390
C850        C  0.70623146  0.42818647  0.99395722     0.06800
C851        C  0.68407429  0.41540747  0.98326722    -0.03160
C852        C  0.68283374  0.38820929  0.98280465    -0.07610
C853        C  0.70151240  0.37258017  0.99555611     0.05920
C854        C  0.72323007  0.38528488  0.00740814    -0.02640
Br855      Br  0.74844073  0.36714067  0.02855251    -0.02330
H856        H  0.74260288  0.42218651  0.01470615     0.09830
H857        H  0.66627272  0.37928194  0.97299429     0.07850
Br858      Br  0.65352627  0.43291358  0.97008768    -0.02760
C859        C  0.78154260  0.49747492  0.36352517    -0.09390
C860        C  0.80134419  0.51382783  0.35323649     0.06800
C861        C  0.81588161  0.52970861  0.37075940    -0.03160
C862        C  0.81198643  0.52741935  0.39771133    -0.07610
C863        C  0.79285832  0.51059802  0.40803973     0.05920
C864        C  0.77696516  0.49603513  0.39067863    -0.02640
Br865      Br  0.75008545  0.47267050  0.40292690    -0.02330
H866        H  0.77004542  0.48521622  0.35047547     0.09830
H867        H  0.82392243  0.53918369  0.41077765     0.07850
Br868      Br  0.84021631  0.55625167  0.35963681    -0.02760
C869        C  0.69110969  0.49059491  0.08379443    -0.09390
C870        C  0.70993460  0.50753461  0.07296206     0.06800
C871        C  0.72651462  0.52177070  0.08996930    -0.03160
C872        C  0.72245264  0.52063589  0.11717602    -0.07610
C873        C  0.70263721  0.50470573  0.12794087     0.05920
C874        C  0.68781671  0.48854468  0.11093515    -0.02640
Br875      Br  0.66377545  0.46228787  0.12350535    -0.02330
H876        H  0.67903687  0.47858613  0.07101243     0.09830
H877        H  0.73427516  0.53294046  0.12989061     0.07850
Br878      Br  0.75394448  0.54414102  0.07733689    -0.02760
C879        C  0.74953372  0.53090968  0.22100118    -0.09390
C880        C  0.73083128  0.51068548  0.22207707     0.06800
C881        C  0.73274003  0.49154317  0.24189394    -0.03160
C882        C  0.75290126  0.49303927  0.26037913    -0.07610
C883        C  0.77164135  0.51320408  0.25930715     0.05920
C884        C  0.76981623  0.53234387  0.23942401    -0.02640
Br885      Br  0.79365746  0.56148510  0.23728139    -0.02330
H886        H  0.74817658  0.54579311  0.20590173     0.09830
H887        H  0.75432745  0.47802234  0.27534179     0.07850
Br888      Br  0.70955017  0.46195609  0.24354423    -0.02760
C889        C  0.62056351  0.53489328  0.18365881    -0.09390
C890        C  0.63534655  0.51651417  0.19783687     0.06800
C891        C  0.62226990  0.49987843  0.21580687    -0.03160
C892        C  0.59493851  0.50100118  0.21819828    -0.07610
C893        C  0.58018665  0.51796832  0.20246530     0.05920
C894        C  0.59328266  0.53556684  0.18560187    -0.02640
Br895      Br  0.57499126  0.56092958  0.16466319    -0.02330
H896        H  0.63025691  0.54818082  0.17016088     0.09830
H897        H  0.58504362  0.48736631  0.23119440     0.07850
Br898      Br  0.63984647  0.47315331  0.23540043    -0.02760
C899        C  0.59202815  0.20372766  0.47345448    -0.09390
C900        C  0.58083706  0.22028423  0.49233509     0.06800
C901        C  0.59728965  0.23463506  0.50934658    -0.03160
C902        C  0.62452514  0.23094164  0.50821717    -0.07610
C903        C  0.63557584  0.21336007  0.49002909     0.05920
C904        C  0.61908083  0.20055595  0.47181536    -0.02640
Br905      Br  0.63233626  0.17901308  0.44377441    -0.02330
H906        H  0.57959937  0.19316017  0.45983250     0.09830
H907        H  0.63698233  0.24098493  0.52223702     0.07850
Br908      Br  0.58343760  0.25765560  0.53575436    -0.02760
C909        C  0.90923399  0.53462537  0.28301730    -0.09390
C910        C  0.92188042  0.51168008  0.27485401     0.06800
C911        C  0.90695172  0.48928467  0.26846187    -0.03160
C912        C  0.87967960  0.48969660  0.27190963    -0.07610
C913        C  0.86719709  0.51243583  0.28115246     0.05920
C914        C  0.88204905  0.53532507  0.28558642    -0.02640
Br915      Br  0.86603323  0.56802854  0.29500549    -0.02330
H916        H  0.92059500  0.55197310  0.28777672     0.09830
H917        H  0.86835961  0.47201617  0.26839657     0.07850
Br918      Br  0.92321949  0.45729785  0.25710573    -0.02760
C919        C  0.27630566  0.52384580  0.11280119    -0.09390
C920        C  0.29385312  0.50587364  0.12402400     0.06800
C921        C  0.30569222  0.48675288  0.10782295    -0.03160
C922        C  0.30159212  0.48720750  0.08078408    -0.07610
C923        C  0.28518586  0.50595758  0.06933722     0.05920
C924        C  0.27180492  0.52394091  0.08561162    -0.02640
Br925      Br  0.24918142  0.55042045  0.07153718    -0.02330
H926        H  0.26694579  0.53851501  0.12503888     0.09830
H927        H  0.31150400  0.47290176  0.06852902     0.07850
Br928      Br  0.32724264  0.45909871  0.12149894    -0.02760
C929        C  0.38000738  0.49124906  0.17511302    -0.09390
C930        C  0.36433554  0.50748964  0.19100069     0.06800
C931        C  0.37658443  0.52268794  0.21078688    -0.03160
C932        C  0.40389969  0.52175231  0.21376941    -0.07610
C933        C  0.41948000  0.50652355  0.19686955     0.05920
C934        C  0.40720622  0.49092885  0.17756550    -0.02640
Br935      Br  0.42629591  0.46832442  0.15412553    -0.02330
H936        H  0.37104807  0.47890919  0.16027671     0.09830
H937        H  0.41312599  0.53401014  0.22853047     0.07850
Br938      Br  0.35778240  0.54693874  0.23268586    -0.02760
C939        C  0.12210006  0.53234734  0.30082166    -0.09390
C940        C  0.13763457  0.51463838  0.28650728     0.06800
C941        C  0.12534380  0.49753792  0.26838500    -0.03160
C942        C  0.09803050  0.49809224  0.26546173    -0.07610
C943        C  0.08254773  0.51476108  0.28099213     0.05920
C944        C  0.09487216  0.53225002  0.29856904    -0.02640
Br945      Br  0.07572829  0.55654876  0.32010842    -0.02330
H946        H  0.13119032  0.54583356  0.31456980     0.09830
H947        H  0.08873278  0.48444460  0.25201721     0.07850
Br948      Br  0.14416615  0.47110235  0.24921728    -0.02760
C949        C  0.19027851  0.48782637  0.37052166    -0.09390
C950        C  0.20531434  0.50567039  0.35576163     0.06800
C951        C  0.22330043  0.52213247  0.36904694    -0.03160
C952        C  0.22515832  0.52111925  0.39646710    -0.07610
C953        C  0.20881847  0.50451256  0.41112010     0.05920
C954        C  0.19160290  0.48736236  0.39787788    -0.02640
Br955      Br  0.16949450  0.46272672  0.41600553    -0.02330
H956        H  0.17668926  0.47470054  0.36071467     0.09830
H957        H  0.23838959  0.53444886  0.40648849     0.07850
Br958      Br  0.24378436  0.54839328  0.35160434    -0.02760
C959        C  0.23112219  0.48926704  0.24148716    -0.09390
C960        C  0.23238852  0.50929391  0.26043654     0.06800
C961        C  0.25263341  0.52808116  0.25887606    -0.03160
C962        C  0.27126633  0.52645476  0.23880584    -0.07610
C963        C  0.26998608  0.50652374  0.21977953     0.05920
C964        C  0.24970837  0.48769790  0.22129274    -0.02640
Br965      Br  0.24715863  0.45875811  0.19722094    -0.02330
H966        H  0.21568438  0.47465227  0.24254793     0.09830
H967        H  0.28652545  0.54125287  0.23765532     0.07850
Br968      Br  0.25468734  0.55750129  0.28227396    -0.02760
C969        C  0.90555054  0.23378088  0.97204815    -0.09390
C970        C  0.91955095  0.21978873  0.99113317     0.06800
C971        C  0.90574471  0.20384858  0.00893398    -0.03160
C972        C  0.87868177  0.20124987  0.00687136    -0.07610
C973        C  0.86472478  0.21370467  0.98675372     0.05920
C974        C  0.87833663  0.23058939  0.96947900    -0.02640
Br975      Br  0.86152037  0.24763361  0.94058329    -0.02330
H976        H  0.91599502  0.24604681  0.95815403     0.09830
H977        H  0.86849935  0.18879238  0.02076829     0.07850
Br978      Br  0.92258261  0.18525519  0.03670050    -0.02760
C979        C  0.90641589  0.99561609  0.21380043    -0.09390
C980        C  0.92099940  0.01495532  0.20079081     0.06800
C981        C  0.90787512  0.03386555  0.18559721    -0.03160
C982        C  0.88061189  0.03270862  0.18305914    -0.07610
C983        C  0.86601349  0.01256856  0.19501452     0.05920
C984        C  0.87922545  0.99395225  0.21062207    -0.02640
Br985      Br  0.86202882  0.96395132  0.22532803    -0.02330
H986        H  0.91639524  0.98080795  0.22524801     0.09830
H987        H  0.87080390  0.04718286  0.17103703     0.07850
Br988      Br  0.92622977  0.06174905  0.16807159    -0.02760
C989        C  0.01652983  0.38710260  0.27143051    -0.09390
C990        C  0.99812486  0.37614595  0.28884722     0.06800
C991        C  0.97999506  0.39283600  0.30147236    -0.03160
C992        C  0.98155593  0.41994839  0.29781144    -0.07610
C993        C  0.00048167  0.43098887  0.28113017     0.05920
C994        C  0.01776177  0.41429868  0.26740862    -0.02640
Br995      Br  0.04470725  0.42767326  0.24471941    -0.02330
H996        H  0.03058306  0.37453990  0.26159885     0.09830
H997        H  0.96772881  0.43253032  0.30795432     0.07850
Br998      Br  0.95193290  0.37974505  0.32301341    -0.02760
C999        C  0.01286406  0.23502523  0.08492263    -0.09390
C1000       C  0.00191605  0.21467673  0.06972871     0.06800
C1001       C  0.99156022  0.19250357  0.08281459    -0.03160
C1002       C  0.99085793  0.19188793  0.11012519    -0.07610
C1003       C  0.00285232  0.21148332  0.12545782     0.05920
C1004       C  0.01427734  0.23321562  0.11242207    -0.02640
Br1005     Br  0.03451471  0.25958629  0.13026339    -0.02330
H1006       H  0.02161520  0.25184558  0.07527953     0.09830
H1007       H  0.98157159  0.17517946  0.11944111     0.07850
Br1008     Br  0.97912959  0.16134780  0.06546485    -0.02760
C1009       C  0.98927920  0.13661339  0.21228233    -0.09390
C1010       C  0.01046162  0.14752978  0.19833965     0.06800
C1011       C  0.03045044  0.13086257  0.18897848    -0.03160
C1012       C  0.02794099  0.10372716  0.19174473    -0.07610
C1013       C  0.00608676  0.09278832  0.20436726     0.05920
C1014       C  0.98703544  0.10939064  0.21543974    -0.02640
Br1015     Br  0.95645696  0.09568658  0.23263397    -0.02330
H1016       H  0.97368579  0.14916239  0.21941283     0.09830
H1017       H  0.04298432  0.09103976  0.18369180     0.07850
Br1018     Br  0.06153206  0.14411513  0.17223680    -0.02760
C1019       C  0.01806091  0.26296666  0.21905679    -0.09390
C1020       C  0.99921810  0.24286774  0.21963993     0.06800
C1021       C  0.98019581  0.24279588  0.23975373    -0.03160
C1022       C  0.98063503  0.26234845  0.25909856    -0.07610
C1023       C  0.99980066  0.28219443  0.25881099     0.05920
C1024       C  0.01862571  0.28241672  0.23847694    -0.02640
Br1025     Br  0.04685052  0.30740228  0.23740785    -0.02330
H1026       H  0.03301448  0.26298085  0.20391356     0.09830
H1027       H  0.96591096  0.26208847  0.27445850     0.07850
Br1028     Br  0.95276898  0.21696968  0.24123566    -0.02760
C1029       C  0.19785293  0.98603880  0.08471495    -0.09390
C1030       C  0.21439850  0.00509329  0.07370959     0.06800
C1031       C  0.22814072  0.02243130  0.09030232    -0.03160
C1032       C  0.22383235  0.02152102  0.11744494    -0.07610
C1033       C  0.20611175  0.00336754  0.12832328     0.05920
C1034       C  0.19389066  0.98480629  0.11177786    -0.02640
Br1035     Br  0.17191520  0.95713279  0.12501897    -0.02330
H1036       H  0.18768097  0.97220483  0.07210820     0.09830
H1037       H  0.23335611  0.03588270  0.12994934     0.07850
Br1038     Br  0.25083811  0.04928640  0.07677039    -0.02760
C1039       C  0.12519657  0.99798081  0.21407904    -0.09390
C1040       C  0.13661030  0.01532946  0.19590076     0.06800
C1041       C  0.12048765  0.03332844  0.18253338    -0.03160
C1042       C  0.09338856  0.03233513  0.18594644    -0.07610
C1043       C  0.08184937  0.01411064  0.20305028     0.05920
C1044       C  0.09798706  0.99733733  0.21783563    -0.02640
Br1045     Br  0.08382401  0.97164267  0.24144355    -0.02330
H1046       H  0.13735818  0.98406636  0.22449066     0.09830
H1047       H  0.08118333  0.04581917  0.17500957     0.07850
Br1048     Br  0.13431377  0.06007942  0.15979903    -0.02760
C1049       C  0.24989893  0.03021571  0.22215405    -0.09390
C1050       C  0.23084865  0.01035223  0.22289447     0.06800
C1051       C  0.23173777  0.99136506  0.24290000    -0.03160
C1052       C  0.25169720  0.99236069  0.26162027    -0.07610
C1053       C  0.27085587  0.01222636  0.26095532     0.05920
C1054       C  0.26964319  0.03149498  0.24110073    -0.02640
Br1055     Br  0.29310181  0.06101598  0.23978361    -0.02330
H1056       H  0.24910703  0.04508208  0.20699134     0.09830
H1057       H  0.25242200  0.97735329  0.27664001     0.07850
Br1058     Br  0.20690086  0.96305671  0.24484774    -0.02760
C1059       C  0.27427967  0.38450194  0.99829179    -0.09390
C1060       C  0.29191140  0.37391208  0.97983824     0.06800
C1061       C  0.30393100  0.39087119  0.96151281    -0.03160
C1062       C  0.30006364  0.41792077  0.96340733    -0.07610
C1063       C  0.28372632  0.42861981  0.98282586     0.05920
C1064       C  0.27000061  0.41165326  0.99979722    -0.02640
Br1065     Br  0.24737870  0.42468168  0.02694993    -0.02330
H1066       H  0.26487360  0.37177663  0.01250508     0.09830
H1067       H  0.31020889  0.43077664  0.94980976     0.07850
Br1068     Br  0.32561205  0.37828984  0.93329042    -0.02760
C1069       C  0.19622328  0.10096974  0.01591116    -0.09390
C1070       C  0.21310566  0.08985939  0.99720703     0.06800
C1071       C  0.22722953  0.10646457  0.98016249    -0.03160
C1072       C  0.22304826  0.13363540  0.98104298    -0.07610
C1073       C  0.20508429  0.14461078  0.99888131     0.05920
C1074       C  0.19240674  0.12807300  0.01712804    -0.02640
Br1075     Br  0.17004496  0.14143652  0.04442606    -0.02330
H1076       H  0.18577124  0.08843253  0.02956740     0.09830
H1077       H  0.23289943  0.14609077  0.96688859     0.07850
Br1078     Br  0.25039005  0.09294129  0.95369676    -0.02760
C1079       C  0.12396292  0.23013504  0.00195290    -0.09390
C1080       C  0.13563508  0.21162573  0.98515547     0.06800
C1081       C  0.11971074  0.19776808  0.96718184    -0.03160
C1082       C  0.09254961  0.20106051  0.96771599    -0.07610
C1083       C  0.08073796  0.21858378  0.98538841     0.05920
C1084       C  0.09676031  0.23381488  0.00211846    -0.02640
Br1085     Br  0.08258936  0.25807803  0.02727136    -0.02330
H1086       H  0.13592536  0.24092919  0.01585584     0.09830
H1087       H  0.08053668  0.18977468  0.95424457     0.07850
Br1088     Br  0.13393281  0.17465419  0.94094073    -0.02760
C1089       C  0.24935917  0.23846317  0.97284157    -0.09390
C1090       C  0.22977163  0.23966014  0.99214433     0.06800
C1091       C  0.22978756  0.26072679  0.01015770    -0.03160
C1092       C  0.24938188  0.27997790  0.00872437    -0.07610
C1093       C  0.26902720  0.27872909  0.98942005     0.05920
C1094       C  0.26864394  0.25792087  0.97112603    -0.02640
Br1095     Br  0.29240111  0.25630991  0.94199891    -0.02330
H1096       H  0.24921138  0.22265289  0.95856706     0.09830
H1097       H  0.24934250  0.29597821  0.02277997     0.07850
Br1098     Br  0.20411084  0.26362451  0.03759131    -0.02760
C1099       C  0.27952992  0.02531398  0.36698993    -0.09390
C1100       C  0.29684535  0.00714179  0.35551964     0.06800
C1101       C  0.30893066  0.98819484  0.37154301    -0.03160
C1102       C  0.30534153  0.98906359  0.39864735    -0.07610
C1103       C  0.28911100  0.00794543  0.41028123     0.05920
C1104       C  0.27546915  0.02572418  0.39423075    -0.02640
Br1105     Br  0.25317912  0.05236368  0.40869869    -0.02330
H1106       H  0.27006934  0.03994090  0.35489703     0.09830
H1107       H  0.31550153  0.97503386  0.41075716     0.07850
Br1108     Br  0.33012339  0.96030603  0.35756774    -0.02760
C1109       C  0.87994152  0.31732425  0.46746591    -0.09390
C1110       C  0.86486607  0.30437363  0.48658352     0.06800
C1111       C  0.87751563  0.28760748  0.50458195    -0.03160
C1112       C  0.90482543  0.28475732  0.50359311    -0.07610
C1113       C  0.91987861  0.29895844  0.48539310     0.05920
C1114       C  0.90715660  0.31501166  0.46692037    -0.02640
Br1115     Br  0.92584648  0.33423945  0.44039624    -0.02330
H1116       H  0.87050396  0.32999197  0.45328992     0.09830
H1117       H  0.91446281  0.27254847  0.51802806     0.07850
Br1118     Br  0.85909698  0.27039451  0.53259594    -0.02760
C1119       C  0.97854796  0.29822699  0.39581952    -0.09390
C1120       C  0.00244838  0.29628767  0.40916056     0.06800
C1121       C  0.02609839  0.29733691  0.39495857    -0.03160
C1122       C  0.02558618  0.30126242  0.36774744    -0.07610
C1123       C  0.00166539  0.30427130  0.35456314     0.05920
C1124       C  0.97801256  0.30229294  0.36869093    -0.02640
Br1125     Br  0.94465418  0.30650373  0.35190915    -0.02330
H1126       H  0.96028614  0.29753818  0.40667281     0.09830
H1127       H  0.04386494  0.30296849  0.35701477     0.07850
Br1128     Br  0.05937778  0.29480471  0.41222074    -0.02760
C1129       C  0.28762212  0.13170990  0.51324911    -0.09390
C1130       C  0.29528592  0.14418854  0.48993135     0.06800
C1131       C  0.29802072  0.12931471  0.46675701    -0.03160
C1132       C  0.29489637  0.10210094  0.46753011    -0.07610
C1133       C  0.28837037  0.08948535  0.49104608     0.05920
C1134       C  0.28400573  0.10444700  0.51388999    -0.02640
Br1135     Br  0.27476406  0.08823678  0.54657178    -0.02330
H1136       H  0.28536143  0.14305379  0.53112734     0.09830
H1137       H  0.29791136  0.09068681  0.44979556     0.07850
Br1138     Br  0.30581112  0.14535628  0.43361349    -0.02760
C1139       C  0.37569174  0.23143632  0.50245379    -0.09390
C1140       C  0.36515290  0.21235425  0.48543071     0.06800
C1141       C  0.38229004  0.19881455  0.46832854    -0.03160
C1142       C  0.40930119  0.20243805  0.47042560    -0.07610
C1143       C  0.41990713  0.22037684  0.48840292     0.05920
C1144       C  0.40282467  0.23585150  0.50372503    -0.02640
Br1145     Br  0.41540538  0.26202536  0.52776233    -0.02330
H1146       H  0.36288030  0.24234026  0.51546269     0.09830
H1147       H  0.42218450  0.19122899  0.45772492     0.07850
Br1148     Br  0.37026002  0.17616272  0.44067782    -0.02760
C1149       C  0.09570970  0.28180760  0.47820720    -0.09390
C1150       C  0.08072416  0.29879887  0.49393816     0.06800
C1151       C  0.09360803  0.31723738  0.51005086    -0.03160
C1152       C  0.12083695  0.31916764  0.50935615    -0.07610
C1153       C  0.13587471  0.30354929  0.49226666     0.05920
C1154       C  0.12308846  0.28424108  0.47697068    -0.02640
Br1155     Br  0.14138836  0.26246690  0.45225373    -0.02330
H1156       H  0.08599050  0.26753249  0.46575563     0.09830
H1157       H  0.13033741  0.33364610  0.52175785     0.07850
Br1158     Br  0.07521681  0.34026786  0.53364119    -0.02760
C1159       C  0.18821537  0.38724612  0.50875111    -0.09390
C1160       C  0.20330018  0.37278623  0.49073322     0.06800
C1161       C  0.22168588  0.38614867  0.47485861    -0.03160
C1162       C  0.22400376  0.41353369  0.47678854    -0.07610
C1163       C  0.20773355  0.42792942  0.49378127     0.05920
C1164       C  0.18993077  0.41447192  0.51008698    -0.02640
Br1165     Br  0.16743081  0.43200304  0.53476011    -0.02330
H1166       H  0.17438825  0.37728445  0.52150602     0.09830
H1167       H  0.23759454  0.42374184  0.46398853     0.07850
Br1168     Br  0.24222182  0.36864301  0.44856619    -0.02760
C1169       C  0.23040080  0.25835232  0.47257703    -0.09390
C1170       C  0.23120413  0.27803438  0.49188835     0.06800
C1171       C  0.25183683  0.27802209  0.51032974    -0.03160
C1172       C  0.27120745  0.25863561  0.50900351    -0.07610
C1173       C  0.27031339  0.23893283  0.48970316     0.05920
C1174       C  0.24969893  0.23898567  0.47128100    -0.02640
Br1175     Br  0.24765336  0.21406256  0.44299828    -0.02330
H1176       H  0.21487540  0.25833067  0.45807941     0.09830
H1177       H  0.28678039  0.25861752  0.52344364     0.07850
Br1178     Br  0.25371999  0.30285166  0.53868660    -0.02760
C1179       C  0.59266913  0.31241273  0.97217826    -0.09390
C1180       C  0.58027174  0.29582322  0.99025479     0.06800
C1181       C  0.59562299  0.28101064  0.00778879    -0.03160
C1182       C  0.62292625  0.28442955  0.00816496    -0.07610
C1183       C  0.63510423  0.30227150  0.99104892     0.05920
C1184       C  0.61981451  0.31541238  0.97214764    -0.02640
Br1185     Br  0.63492049  0.33750960  0.94557049    -0.02330
H1186       H  0.58109083  0.32339082  0.95817705     0.09830
H1187       H  0.63450813  0.27408206  0.02261633     0.07850
Br1188     Br  0.58014838  0.25786403  0.03311844    -0.02760
C1189       C  0.40419609  0.28533869  0.98231380    -0.09390
C1190       C  0.41924107  0.30516800  0.99417677     0.06800
C1191       C  0.40617126  0.32678273  0.00561752    -0.03160
C1192       C  0.37883724  0.32776560  0.00543184    -0.07610
C1193       C  0.36367617  0.30883272  0.99211691     0.05920
C1194       C  0.37686956  0.28727888  0.98050229    -0.02640
Br1195     Br  0.35994802  0.26113437  0.95936904    -0.02330
H1196       H  0.41388548  0.26883898  0.97302365     0.09830
H1197       H  0.36941110  0.34418072  0.01510660     0.07850
Br1198     Br  0.42386193  0.35632394  0.02118944    -0.02760
C1199       C  0.59187422  0.99180414  0.29890224    -0.09390
C1200       C  0.58143200  0.00724091  0.27871329     0.06800
C1201       C  0.59879689  0.01945367  0.26090042    -0.03160
C1202       C  0.62590213  0.01829894  0.26530953    -0.07610
C1203       C  0.63621512  0.00391127  0.28644912     0.05920
C1204       C  0.61884265  0.98912063  0.30219014    -0.02640
Br1205     Br  0.63051801  0.96371738  0.32747093    -0.02330
H1206       H  0.57894088  0.98152669  0.31221395     0.09830
H1207       H  0.63887259  0.02941560  0.25263855     0.07850
Br1208     Br  0.58694962  0.03905331  0.23114495    -0.02760
C1209       C  0.40917800  0.03420903  0.29541865    -0.09390
C1210       C  0.42040488  0.01526226  0.27891597     0.06800
C1211       C  0.40401655  0.99765476  0.26523455    -0.03160
C1212       C  0.37686399  0.99834930  0.26940528    -0.07610
C1213       C  0.36573980  0.01657300  0.28691077     0.05920
C1214       C  0.38211647  0.03526394  0.29920139    -0.02640
Br1215     Br  0.36864918  0.06309732  0.32084755    -0.02330
H1216       H  0.42159681  0.04823115  0.30555494     0.09830
H1217       H  0.36453276  0.98388320  0.25982833     0.07850
Br1218     Br  0.41786144  0.97084793  0.24265014    -0.02760
C1219       C  0.52347901  0.29195694  0.08654429    -0.09390
C1220       C  0.50032925  0.29790182  0.07302761     0.06800
C1221       C  0.47798991  0.30568166  0.08721022    -0.03160
C1222       C  0.47942446  0.30899839  0.11438237    -0.07610
C1223       C  0.50287269  0.30426663  0.12781663     0.05920
C1224       C  0.52487235  0.29505785  0.11385340    -0.02640
Br1225     Br  0.55764084  0.28848072  0.13096288    -0.02330
H1226       H  0.54076879  0.28593842  0.07574289     0.09830
H1227       H  0.46237695  0.31596088  0.12501610     0.07850
Br1228     Br  0.44514229  0.31196602  0.07032230    -0.02760
C1229       C  0.48753284  0.38746960  0.20885312    -0.09390
C1230       C  0.50733315  0.37596553  0.19351847     0.06800
C1231       C  0.52644007  0.39224046  0.18176033    -0.03160
C1232       C  0.52469982  0.41949261  0.18428674    -0.07610
C1233       C  0.50449422  0.43103864  0.19893163     0.05920
C1234       C  0.48600184  0.41481210  0.21164988    -0.02640
Br1235     Br  0.45697363  0.42906270  0.23095171    -0.02330
H1236       H  0.47260423  0.37521783  0.21778212     0.09830
H1237       H  0.53927098  0.43176726  0.17479955     0.07850
Br1238     Br  0.55573113  0.37825575  0.16259249    -0.02760
C1239       C  0.51733670  0.13649822  0.27234835    -0.09390
C1240       C  0.49575583  0.14757219  0.28540526     0.06800
C1241       C  0.47505196  0.13111509  0.29357386    -0.03160
C1242       C  0.47691096  0.10396567  0.29003767    -0.07610
C1243       C  0.49898772  0.09279722  0.27801818     0.05920
C1244       C  0.51906978  0.10929437  0.26863665    -0.02640
Br1245     Br  0.55027827  0.09549374  0.25305746    -0.02330
H1246       H  0.53349113  0.14891383  0.26621186     0.09830
H1247       H  0.46118232  0.09144258  0.29703538     0.07850
Br1248     Br  0.44381823  0.14479366  0.30954696    -0.02760
C1249       C  0.48829016  0.23595309  0.39719138    -0.09390
C1250       C  0.50383329  0.21898765  0.41222320     0.06800
C1251       C  0.51929106  0.20003607  0.39924305    -0.03160
C1252       C  0.51848069  0.19796268  0.37193517    -0.07610
C1253       C  0.50191145  0.21392516  0.35685239     0.05920
C1254       C  0.48688155  0.23334879  0.36979199    -0.02640
Br1255     Br  0.46210980  0.25510639  0.35184175    -0.02330
H1256       H  0.47611843  0.25042345  0.40691828     0.09830
H1257       H  0.53057568  0.18329178  0.36241195     0.07850
Br1258     Br  0.54222408  0.17646019  0.41747166    -0.02760
C1259       C  0.52484831  0.24465811  0.24615759    -0.09390
C1260       C  0.50264230  0.24286850  0.26234615     0.06800
C1261       C  0.48197241  0.26082027  0.25892829    -0.03160
C1262       C  0.48382762  0.28029164  0.23967299    -0.07610
C1263       C  0.50593368  0.28197419  0.22334816     0.05920
C1264       C  0.52663422  0.26404079  0.22677733    -0.02640
Br1265     Br  0.55800861  0.26577833  0.20603450    -0.02330
H1266       H  0.54086020  0.23096816  0.24867000     0.09830
H1267       H  0.46764612  0.29373791  0.23693384     0.07850
Br1268     Br  0.45010050  0.25838423  0.27880025    -0.02760
C1269       C  0.38043276  0.81843623  0.51421085    -0.09390
C1270       C  0.36487606  0.80419998  0.49643247     0.06800
C1271       C  0.37720441  0.78631283  0.47912388    -0.03160
C1272       C  0.40457576  0.78363255  0.47947650    -0.07610
C1273       C  0.42006541  0.79914719  0.49620075     0.05920
C1274       C  0.40768011  0.81640768  0.51395957    -0.02640
Br1275     Br  0.42677908  0.83790545  0.53839388    -0.02330
H1276       H  0.37133398  0.83197732  0.52788348     0.09830
H1277       H  0.41389137  0.77046717  0.46558819     0.07850
Br1278     Br  0.35830271  0.76719101  0.45268468    -0.02760
C1279       C  0.31123301  0.88819452  0.47123205    -0.09390
C1280       C  0.29660093  0.87316925  0.48915474     0.06800
C1281       C  0.27853635  0.88612814  0.50577540    -0.03160
C1282       C  0.27593888  0.91347422  0.50453902    -0.07610
C1283       C  0.29177474  0.92843450  0.48771066     0.05920
C1284       C  0.30937152  0.91549362  0.47073034    -0.02640
Br1285     Br  0.33153843  0.93382222  0.44640398    -0.02330
H1286       H  0.32494158  0.87865675  0.45805064     0.09830
H1287       H  0.26253963  0.92323684  0.51787389     0.07850
Br1288     Br  0.25902577  0.86841312  0.53259083    -0.02760
C1289       C  0.12438938  0.73275478  0.50231218    -0.09390
C1290       C  0.13563176  0.71451759  0.48489049     0.06800
C1291       C  0.11945854  0.70188169  0.46625982    -0.03160
C1292       C  0.09244823  0.70578424  0.46687520    -0.07610
C1293       C  0.08098313  0.72271980  0.48529180     0.05920
C1294       C  0.09722713  0.73704556  0.50254425    -0.02640
Br1295     Br  0.08321553  0.76069625  0.52831649    -0.02330
H1296       H  0.13658761  0.74275437  0.51658938     0.09830
H1297       H  0.08021192  0.69518685  0.45304452     0.07850
Br1298     Br  0.13303747  0.67933975  0.43917212    -0.02760
C1299       C  0.18951339  0.62902352  0.47035891    -0.09390
C1300       C  0.20233912  0.64415708  0.48954675     0.06800
C1301       C  0.21872554  0.63147085  0.50785708    -0.03160
C1302       C  0.22131622  0.60407013  0.50708415    -0.07610
C1303       C  0.20731908  0.58902152  0.48868952     0.05920
C1304       C  0.19166252  0.60176585  0.46993965    -0.02640
Br1305     Br  0.17313687  0.58299041  0.44294642    -0.02330
H1306       H  0.17728285  0.63847297  0.45583152     0.09830
H1307       H  0.23330373  0.59438933  0.52167246     0.07850
Br1308     Br  0.23600446  0.65005666  0.53572811    -0.02760
C1309       C  0.23071608  0.75707912  0.51005274    -0.09390
C1310       C  0.23082785  0.73875401  0.48946605     0.06800
C1311       C  0.25080191  0.74002132  0.47032713    -0.03160
C1312       C  0.27011376  0.75952268  0.47202788    -0.07610
C1313       C  0.26987673  0.77795226  0.49256329     0.05920
C1314       C  0.25011076  0.77640714  0.51185880    -0.02640
Br1315     Br  0.24965204  0.79891766  0.54203448    -0.02330
H1316       H  0.21570404  0.75601554  0.52510020     0.09830
H1317       H  0.28519418  0.76055616  0.45704962     0.07850
Br1318     Br  0.25185405  0.71656149  0.44080627    -0.02760
C1319       C  0.97568437  0.71471617  0.36754391    -0.09390
C1320       C  0.99956722  0.71510728  0.35392337     0.06800
C1321       C  0.02295617  0.72015486  0.36767716    -0.03160
C1322       C  0.02231265  0.72353108  0.39496772    -0.07610
C1323       C  0.99850333  0.72220468  0.40870138     0.05920
C1324       C  0.97501194  0.71842759  0.39475593    -0.02640
Br1325     Br  0.94167780  0.71803107  0.41207526    -0.02330
H1326       H  0.95759434  0.71101683  0.35703347     0.09830
H1327       H  0.04049223  0.72640434  0.40558100     0.07850
Br1328     Br  0.05618124  0.72146501  0.35005323    -0.02760
C1329       C  0.98109961  0.63457306  0.27251429    -0.09390
C1330       C  0.00282469  0.64691864  0.28414334     0.06800
C1331       C  0.02511173  0.63194171  0.29033005    -0.03160
C1332       C  0.02485139  0.60483152  0.28625341    -0.07610
C1333       C  0.00274561  0.59227415  0.27578493     0.05920
C1334       C  0.98092530  0.60735991  0.26833279    -0.02640
Br1335     Br  0.94983808  0.59141203  0.25440551    -0.02330
H1336       H  0.96385986  0.64595541  0.26770766     0.09830
H1337       H  0.04181171  0.59342045  0.29173709     0.07850
Br1338     Br  0.05630425  0.64764741  0.30444895    -0.02760
C1339       C  0.01753693  0.78743549  0.08592152    -0.09390
C1340       C  0.99986872  0.80240429  0.07107172     0.06800
C1341       C  0.98242833  0.81930674  0.08421200    -0.03160
C1342       C  0.98331178  0.82167128  0.11141742    -0.07610
C1343       C  0.00187069  0.80797101  0.12626048     0.05920
C1344       C  0.01891612  0.79033628  0.11333259    -0.02640
Br1345     Br  0.04595401  0.77172013  0.13157038    -0.02330
H1346       H  0.03116081  0.77442686  0.07606446     0.09830
H1347       H  0.96976953  0.83494072  0.12105839     0.07850
Br1348     Br  0.95661566  0.83957639  0.06636624    -0.02760
C1349       C  0.02449540  0.92053091  0.18798302    -0.09390
C1350       C  0.00281765  0.93189566  0.20048321     0.06800
C1351       C  0.98320097  0.91559377  0.21116574    -0.03160
C1352       C  0.98500175  0.88828398  0.20822748    -0.07610
C1353       C  0.00628051  0.87695535  0.19486339     0.05920
C1354       C  0.02651781  0.89331285  0.18538788    -0.02640
Br1355     Br  0.05755501  0.87940511  0.16918767    -0.02330
H1356       H  0.03996240  0.93292332  0.18021847     0.09830
H1357       H  0.96922301  0.87594596  0.21540212     0.07850
Br1358     Br  0.95265271  0.92983092  0.22788315    -0.02760
C1359       C  0.01992789  0.76069129  0.26019750    -0.09390
C1360       C  0.99968697  0.74200151  0.25964679     0.06800
C1361       C  0.98047950  0.74349521  0.23983894    -0.03160
C1362       C  0.98189818  0.76338521  0.22097460    -0.07610
C1363       C  0.00221304  0.78205102  0.22146055     0.05920
C1364       C  0.02144083  0.78048487  0.24128079    -0.02640
Br1365     Br  0.05119449  0.80361745  0.24250708    -0.02330
H1366       H  0.03497766  0.75953179  0.27513747     0.09830
H1367       H  0.96690112  0.76445535  0.20598070     0.07850
Br1368     Br  0.95124691  0.71972833  0.23838323    -0.02760
C1369       C  0.27846773  0.63454815  0.98065472    -0.09390
C1370       C  0.29912790  0.64454731  0.99605381     0.06800
C1371       C  0.31384873  0.62674637  0.01135889    -0.03160
C1372       C  0.30919809  0.59982903  0.00936256    -0.07610
C1373       C  0.28927090  0.58980681  0.99328581     0.05920
C1374       C  0.27316118  0.60753061  0.97953227    -0.02640
Br1375     Br  0.24456163  0.59619457  0.95792968    -0.02330
H1376       H  0.26672400  0.64772538  0.96890393     0.09830
H1377       H  0.32111660  0.58654912  0.02085018     0.07850
Br1378     Br  0.33939039  0.63737056  0.03688912    -0.02760
C1379       C  0.09379607  0.81549682  0.96986478    -0.09390
C1380       C  0.08202929  0.79911805  0.98858874     0.06800
C1381       C  0.09802217  0.78484795  0.00595958    -0.03160
C1382       C  0.12530437  0.78834918  0.00528409    -0.07610
C1383       C  0.13697609  0.80568186  0.98723236     0.05920
C1384       C  0.12095385  0.81846019  0.96868395    -0.02640
Br1385     Br  0.13498080  0.83969866  0.94082346    -0.02330
H1386       H  0.08172835  0.82616404  0.95605242     0.09830
H1387       H  0.13731413  0.77841536  0.01967264     0.07850
Br1388     Br  0.08352266  0.76240309  0.03249627    -0.02760
C1389       C  0.22336269  0.88498643  0.97780037    -0.09390
C1390       C  0.20626092  0.87387384  0.99641453     0.06800
C1391       C  0.19422887  0.89033756  0.01517418    -0.03160
C1392       C  0.19784686  0.91744166  0.01385630    -0.07610
C1393       C  0.21389837  0.92867191  0.99452604     0.05920
C1394       C  0.22734686  0.91222725  0.97681664    -0.02640
Br1395     Br  0.24933340  0.92613409  0.94958105    -0.02330
H1396       H  0.23271985  0.87257551  0.96326668     0.09830
H1397       H  0.18791196  0.92989997  0.02797997     0.07850
Br1398     Br  0.17302651  0.87691429  0.04335974    -0.02760
C1399       C  0.23152972  0.75907728  0.97480415    -0.09390
C1400       C  0.23139542  0.77852144  0.99442056     0.06800
C1401       C  0.25065111  0.77767761  0.01430484    -0.03160
C1402       C  0.26987827  0.75815035  0.01379584    -0.07610
C1403       C  0.27014202  0.73892326  0.99403196     0.05920
C1404       C  0.25060942  0.73938646  0.97448167    -0.02640
Br1405     Br  0.24991759  0.71458785  0.94604815    -0.02330
H1406       H  0.21698496  0.75949316  0.95933567     0.09830
H1407       H  0.28456224  0.75775565  0.02913756     0.07850
Br1408     Br  0.25084888  0.80153768  0.04356036    -0.02760
C1409       C  0.40785537  0.71543862  0.01558080    -0.09390
C1410       C  0.42013724  0.72430180  0.99264107     0.06800
C1411       C  0.40478675  0.73089020  0.97067927    -0.03160
C1412       C  0.37760413  0.72677396  0.97134074    -0.07610
C1413       C  0.36552250  0.71661393  0.99391743     0.05920
C1414       C  0.38070614  0.71206393  0.01650850    -0.02640
Br1415     Br  0.36515276  0.70177467  0.04920471    -0.02330
H1416       H  0.41948185  0.71088039  0.03276207     0.09830
H1417       H  0.36603274  0.73060969  0.95395769     0.07850
Br1418     Br  0.42025366  0.74393647  0.93899352    -0.02760
C1419       C  0.48446370  0.78987680  0.36682499    -0.09390
C1420       C  0.50102277  0.80893339  0.35563513     0.06800
C1421       C  0.51817072  0.82317038  0.37212173    -0.03160
C1422       C  0.51686961  0.81987091  0.39921854    -0.07610
C1423       C  0.49982861  0.80151225  0.41054057     0.05920
C1424       C  0.48396498  0.78586791  0.39407908    -0.02640
Br1425     Br  0.45985683  0.76039438  0.40783028    -0.02330
H1426       H  0.47126749  0.77868968  0.35444167     0.09830
H1427       H  0.52949750  0.83165052  0.41155995     0.07850
Br1428     Br  0.54482240  0.84644202  0.35894590    -0.02760
C1429       C  0.51758839  0.89147238  0.29893430    -0.09390
C1430       C  0.49855677  0.87642728  0.28592036     0.06800
C1431       C  0.48118524  0.88901278  0.26847911    -0.03160
C1432       C  0.48266909  0.91635505  0.26513311    -0.07610
C1433       C  0.50081327  0.93140914  0.27948214     0.05920
C1434       C  0.51859786  0.91860443  0.29620259    -0.02640
Br1435     Br  0.54489335  0.93691221  0.31593681    -0.02330
H1436       H  0.53144726  0.88206801  0.31193380     0.09830
H1437       H  0.46878177  0.92600771  0.25233366     0.07850
Br1438     Br  0.45370467  0.87035803  0.25073171    -0.02760
C1439       C  0.51797766  0.70233295  0.11293119    -0.09390
C1440       C  0.49850154  0.71497448  0.12767984     0.06800
C1441       C  0.48069472  0.73173881  0.11479373    -0.03160
C1442       C  0.48235677  0.73503892  0.08750766    -0.07610
C1443       C  0.50106864  0.72125178  0.07275744     0.05920
C1444       C  0.51917651  0.70505998  0.08577075    -0.02640
Br1445     Br  0.54606350  0.68609950  0.06762851    -0.02330
H1446       H  0.53198852  0.68965205  0.12257994     0.09830
H1447       H  0.46813565  0.74728851  0.07763026     0.07850
Br1448     Br  0.45219430  0.74837599  0.13281108    -0.02760
C1449       C  0.51921273  0.60624418  0.20549093    -0.09390
C1450       C  0.49601868  0.59193147  0.20171771     0.06800
C1451       C  0.47257090  0.60518800  0.19610708    -0.03160
C1452       C  0.47269527  0.63250246  0.19361068    -0.07610
C1453       C  0.49602419  0.64681089  0.19660622     0.05920
C1454       C  0.51939079  0.63357030  0.20280922    -0.02640
Br1455     Br  0.55223928  0.65176744  0.20564645    -0.02330
H1456       H  0.53738563  0.59605248  0.20949232     0.09830
H1457       H  0.45472089  0.64255552  0.18853112     0.07850
Br1458     Br  0.44018088  0.58662744  0.19112143    -0.02760
C1459       C  0.51990725  0.74409056  0.23873553    -0.09390
C1460       C  0.49785820  0.74154793  0.22248762     0.06800
C1461       C  0.47658797  0.75879692  0.22581408    -0.03160
C1462       C  0.47777701  0.77849320  0.24487784    -0.07610
C1463       C  0.49980241  0.78112557  0.26109046     0.05920
C1464       C  0.52104334  0.76375576  0.25794535    -0.02640
Br1465     Br  0.55240843  0.76690169  0.27846932    -0.02330
H1466       H  0.53639599  0.73095547  0.23621685     0.09830
H1467       H  0.46123060  0.79156264  0.24739622     0.07850
Br1468     Br  0.44490285  0.75532930  0.20589219    -0.02760
C1469       C  0.27719473  0.52321673  0.86406042    -0.09390
C1470       C  0.29622485  0.50627381  0.85354697     0.06800
C1471       C  0.30939675  0.48883485  0.87046998    -0.03160
C1472       C  0.30523180  0.49031657  0.89746282    -0.07610
C1473       C  0.28730403  0.50820331  0.90815385     0.05920
C1474       C  0.27241356  0.52405140  0.89116350    -0.02640
Br1475     Br  0.24670218  0.54829886  0.90385396    -0.02330
H1476       H  0.26665997  0.53646555  0.85127327     0.09830
H1477       H  0.31605374  0.47727719  0.91024888     0.07850
Br1478     Br  0.33247512  0.46177091  0.85797450    -0.02760
C1479       C  0.40621251  0.52388076  0.76509216    -0.09390
C1480       C  0.42135997  0.50809340  0.78178051     0.06800
C1481       C  0.40858680  0.49152693  0.79987348    -0.03160
C1482       C  0.38133048  0.49133013  0.80129768    -0.07610
C1483       C  0.36603958  0.50826091  0.78589367     0.05920
C1484       C  0.37877105  0.52447107  0.76730608    -0.02640
Br1485     Br  0.36033674  0.54962391  0.74634435    -0.02330
H1486       H  0.41583134  0.53684825  0.75124085     0.09830
H1487       H  0.37200088  0.47829901  0.81525914     0.07850
Br1488     Br  0.42705687  0.46862713  0.82337411    -0.02760
C1489       C  0.12133709  0.53412035  0.70267822    -0.09390
C1490       C  0.13458744  0.51015812  0.70018875     0.06800
C1491       C  0.12044334  0.48646142  0.70192102    -0.03160
C1492       C  0.09323846  0.48699029  0.70518084    -0.07610
C1493       C  0.07989524  0.51094032  0.70672027     0.05920
C1494       C  0.09409029  0.53463332  0.70594632    -0.02640
Br1495     Br  0.07681988  0.56797980  0.70774763    -0.02330
H1496       H  0.13206586  0.55242250  0.70097535     0.09830
H1497       H  0.08235518  0.46869114  0.70552475     0.07850
Br1498     Br  0.13732924  0.45304984  0.69819225    -0.02760
C1499       C  0.21776039  0.52325782  0.61603864    -0.09390
C1500       C  0.19890624  0.50650769  0.62730090     0.06800
C1501       C  0.18438938  0.48959370  0.61077459    -0.03160
C1502       C  0.18754475  0.49103821  0.58363264    -0.07610
C1503       C  0.20575984  0.50827053  0.57232107     0.05920
C1504       C  0.22144720  0.52407871  0.58876142    -0.02640
Br1505     Br  0.24665532  0.54846031  0.57498785    -0.02330
H1506       H  0.22910947  0.53632548  0.62842309     0.09830
H1507       H  0.17581950  0.47834721  0.57123509     0.07850
Br1508     Br  0.16094807  0.46305993  0.62390337    -0.02760
C1509       C  0.23147406  0.52703161  0.73954655    -0.09390
C1510       C  0.23045265  0.50685931  0.72077123     0.06800
C1511       C  0.24996204  0.48724372  0.72099653    -0.03160
C1512       C  0.26996850  0.48817223  0.73979054    -0.07610
C1513       C  0.27076124  0.50823056  0.75870878     0.05920
C1514       C  0.25135552  0.52789992  0.75834796    -0.02640
Br1515     Br  0.25163586  0.55707732  0.78230727    -0.02330
H1516       H  0.21682704  0.54239599  0.73940682     0.09830
H1517       H  0.28459341  0.47279455  0.74007301     0.07850
Br1518     Br  0.24927864  0.45779358  0.69742285    -0.02760
C1519       C  0.31237459  0.98980540  0.61117969    -0.09390
C1520       C  0.29748723  0.00706083  0.62674849     0.06800
C1521       C  0.27877337  0.02326889  0.61438062    -0.03160
C1522       C  0.27589001  0.02236114  0.58698358    -0.07610
C1523       C  0.29196224  0.00616969  0.57151135     0.05920
C1524       C  0.31006232  0.98948986  0.58391639    -0.02640
Br1525     Br  0.33189170  0.96540446  0.56477171    -0.02330
H1526       H  0.32639888  0.97676939  0.62027905     0.09830
H1527       H  0.26192371  0.03528433  0.57763271     0.07850
Br1528     Br  0.25845706  0.04877147  0.63323641    -0.02760
C1529       C  0.09329301  0.99032186  0.80069039    -0.09390
C1530       C  0.08215512  0.00653979  0.78155025     0.06800
C1531       C  0.09884911  0.02181213  0.76551388    -0.03160
C1532       C  0.12599917  0.02174839  0.76995521    -0.07610
C1533       C  0.13703792  0.00628121  0.78989663     0.05920
C1534       C  0.12035612  0.98962680  0.80461205    -0.02640
Br1535     Br  0.13312971  0.96435565  0.82943803    -0.02330
H1536       H  0.08081359  0.97785446  0.81260085     0.09830
H1537       H  0.13842689  0.03452425  0.75834444     0.07850
Br1538     Br  0.08568865  0.04456088  0.73862891    -0.02760
C1539       C  0.19372536  0.99120553  0.87276674    -0.09390
C1540       C  0.20664779  0.01031819  0.85764447     0.06800
C1541       C  0.22390156  0.02798291  0.87032274    -0.03160
C1542       C  0.22702187  0.02684393  0.89768072    -0.07610
C1543       C  0.21275242  0.00870016  0.91273203     0.05920
C1544       C  0.19640236  0.99042452  0.89997485    -0.02640
Br1545     Br  0.17754216  0.96360573  0.91865511    -0.02330
H1546       H  0.18095753  0.97703299  0.86336109     0.09830
H1547       H  0.23965387  0.04098675  0.90735541     0.07850
Br1548     Br  0.24183469  0.05546449  0.85196096    -0.02760
C1549       C  0.26967435  0.02790062  0.73968842    -0.09390
C1550       C  0.27053478  0.00668147  0.72212453     0.06800
C1551       C  0.25166270  0.98651916  0.72442033    -0.03160
C1552       C  0.23254016  0.98782033  0.74419414    -0.07610
C1553       C  0.23179867  0.00901922  0.76188175     0.05920
C1554       C  0.25043971  0.02934979  0.75922867    -0.02640
Br1555     Br  0.24946544  0.06049988  0.78039263    -0.02330
H1556       H  0.28375900  0.04375251  0.73781890     0.09830
H1557       H  0.21838569  0.97203152  0.74600076     0.07850
Br1558     Br  0.25190530  0.95623184  0.70195224    -0.02760
C1559       C  0.98205426  0.32238204  0.61070262    -0.09390
C1560       C  0.99969585  0.30738056  0.62556644     0.06800
C1561       C  0.01549444  0.28866818  0.61255638    -0.03160
C1562       C  0.01375232  0.28575862  0.58523596    -0.07610
C1563       C  0.99696758  0.30166069  0.57038252     0.05920
C1564       C  0.98071491  0.31984642  0.58342629    -0.02640
Br1565     Br  0.95583135  0.34134824  0.56517354    -0.02330
H1566       H  0.96945844  0.33652637  0.62037046     0.09830
H1567       H  0.02652375  0.27188767  0.57540517     0.07850
Br1568     Br  0.04161088  0.26839450  0.63039739    -0.02760
C1569       C  0.98609264  0.38466979  0.71057506    -0.09390
C1570       C  0.00731824  0.37370357  0.69691394     0.06800
C1571       C  0.02783029  0.39019204  0.68835520    -0.03160
C1572       C  0.02604703  0.41733512  0.69206881    -0.07610
C1573       C  0.00423903  0.42843228  0.70466251     0.05920
C1574       C  0.98442620  0.41182711  0.71446289    -0.02640
Br1575     Br  0.95345775  0.42532513  0.73071141    -0.02330
H1576       H  0.97009564  0.37220637  0.71702561     0.09830
H1577       H  0.04157867  0.42990195  0.68472500     0.07850
Br1578     Br  0.05865571  0.37653121  0.67159639    -0.02760
C1579       C  0.98671049  0.13307463  0.76864334    -0.09390
C1580       C  0.00428888  0.14483767  0.78637508     0.06800
C1581       C  0.02303191  0.12899742  0.79908204    -0.03160
C1582       C  0.02277079  0.10184748  0.79528776    -0.07610
C1583       C  0.00452821  0.08996642  0.77844877     0.05920
C1584       C  0.98673118  0.10583857  0.76457000    -0.02640
Br1585     Br  0.96048545  0.09114274  0.74190449    -0.02330
H1586       H  0.97218713  0.14496687  0.75877756     0.09830
H1587       H  0.03683080  0.08986735  0.80572459     0.07850
Br1588     Br  0.04993877  0.14332373  0.82129946    -0.02760
C1589       C  0.01903181  0.22797805  0.89373365    -0.09390
C1590       C  0.99635901  0.22253297  0.90833641     0.06800
C1591       C  0.97343774  0.21431343  0.89531772    -0.03160
C1592       C  0.97367380  0.21080672  0.86808320    -0.07610
C1593       C  0.99661345  0.21526594  0.85356964     0.05920
C1594       C  0.01935308  0.22420105  0.86649202    -0.02640
Br1595     Br  0.05183235  0.22906914  0.84807116    -0.02330
H1596       H  0.03688242  0.23380937  0.90369265     0.09830
H1597       H  0.95616617  0.20376602  0.85829144     0.07850
Br1598     Br  0.94161177  0.20703770  0.91408749    -0.02760
C1599       C  0.02216866  0.24320428  0.74390160    -0.09390
C1600       C  0.99918185  0.23906608  0.75847470     0.06800
C1601       C  0.97696329  0.25462923  0.75341408    -0.03160
C1602       C  0.97811994  0.27421083  0.73419959    -0.07610
C1603       C  0.00118721  0.27846134  0.71980381     0.05920
C1604       C  0.02333498  0.26282537  0.72475825    -0.02640
Br1605     Br  0.05587140  0.26840576  0.70666860    -0.02330
H1606       H  0.03940495  0.23147230  0.74780637     0.09830
H1607       H  0.96097055  0.28610223  0.73040162     0.07850
Br1608     Br  0.94443720  0.24922734  0.77161508    -0.02760
C1609       C  0.40926059  0.99004179  0.68696429    -0.09390
C1610       C  0.42040075  0.00909199  0.70341066     0.06800
C1611       C  0.40385404  0.02631860  0.71737432    -0.03160
C1612       C  0.37662097  0.02517741  0.71348588    -0.07610
C1613       C  0.36559254  0.00680771  0.69603883     0.05920
C1614       C  0.38218691  0.98845973  0.68354085    -0.02640
Br1615     Br  0.36904426  0.96021986  0.66216893    -0.02330
H1616       H  0.42176050  0.97621879  0.67669923     0.09830
H1617       H  0.36414520  0.03931512  0.72330477     0.07850
Br1618     Br  0.41759262  0.05300799  0.74016526    -0.02760
C1619       C  0.47868882  0.30003042  0.86930076    -0.09390
C1620       C  0.50197546  0.30799425  0.85689516     0.06800
C1621       C  0.52471966  0.31189044  0.87206156    -0.03160
C1622       C  0.52367122  0.30892198  0.89932621    -0.07610
C1623       C  0.50024524  0.30171564  0.91179881     0.05920
C1624       C  0.47770419  0.29686285  0.89662918    -0.02640
Br1625     Br  0.44484045  0.28786567  0.91267218    -0.02330
H1626       H  0.46102998  0.29725554  0.85782797     0.09830
H1627       H  0.54114843  0.31248714  0.91088245     0.07850
Br1628     Br  0.55762085  0.32123442  0.85634734    -0.02760
C1629       C  0.48141913  0.38945945  0.77825425    -0.09390
C1630       C  0.50369660  0.37678657  0.78813249     0.06800
C1631       C  0.52641768  0.39160493  0.79352073    -0.03160
C1632       C  0.52612037  0.41886376  0.79049728    -0.07610
C1633       C  0.50358742  0.43163641  0.78152225     0.05920
C1634       C  0.48126833  0.41674603  0.77482952    -0.02640
Br1635     Br  0.44968018  0.43303061  0.76270513    -0.02330
H1636       H  0.46383275  0.37823313  0.77411278     0.09830
H1637       H  0.54346703  0.43017526  0.79538482     0.07850
Br1638     Br  0.55836157  0.37539066  0.80474663    -0.02760
C1639       C  0.52212574  0.13217969  0.68929005    -0.09390
C1640       C  0.50006445  0.14628540  0.69761794     0.06800
C1641       C  0.47942767  0.13282863  0.71027036    -0.03160
C1642       C  0.48100022  0.10560141  0.71398582    -0.07610
C1643       C  0.50266861  0.09144182  0.70469088     0.05920
C1644       C  0.52348102  0.10502307  0.69259350    -0.02640
Br1645     Br  0.55419155  0.08744727  0.68014178    -0.02330
H1646       H  0.53811795  0.14230063  0.67955385     0.09830
H1647       H  0.46466244  0.09528216  0.72288427     0.07850
Br1648     Br  0.44764612  0.15015794  0.72026033    -0.02760
C1649       C  0.52096621  0.22577155  0.58811570    -0.09390
C1650       C  0.49788338  0.22152590  0.57377279     0.06800
C1651       C  0.47476291  0.21437920  0.58708475    -0.03160
C1652       C  0.47502097  0.21122805  0.61434912    -0.07610
C1653       C  0.49820962  0.21479289  0.62865597     0.05920
C1654       C  0.52132187  0.22220877  0.61540419    -0.02640
Br1655     Br  0.55410617  0.22554149  0.63350172    -0.02330
H1656       H  0.53897590  0.23073249  0.57794276     0.09830
H1657       H  0.45724061  0.20521009  0.62436071     0.07850
Br1658     Br  0.44260290  0.20796396  0.56871139    -0.02760
C1659       C  0.51760411  0.26075099  0.72278222    -0.09390
C1660       C  0.49774875  0.24161532  0.72344885     0.06800
C1661       C  0.47869086  0.24284052  0.74354194    -0.03160
C1662       C  0.47993321  0.26272109  0.76252488    -0.07610
C1663       C  0.49979181  0.28183052  0.76187235     0.05920
C1664       C  0.51884323  0.28064979  0.74175429    -0.02640
Br1665     Br  0.54794793  0.30457737  0.74008057    -0.02330
H1666       H  0.53253719  0.25993237  0.70764467     0.09830
H1667       H  0.46502896  0.26351841  0.77769068     0.07850
Br1668     Br  0.44958071  0.21901726  0.74520995    -0.02760
C1669       C  0.02283385  0.69938144  0.60980166    -0.09390
C1670       C  0.00425899  0.71268165  0.62524166     0.06800
C1671       C  0.98642937  0.72980332  0.61280807    -0.03160
C1672       C  0.98705222  0.73268592  0.58543293    -0.07610
C1673       C  0.00476882  0.71827953  0.57002143     0.05920
C1674       C  0.02313479  0.70191241  0.58249993    -0.02640
Br1675     Br  0.04950772  0.68298933  0.56333598    -0.02330
H1676       H  0.03691811  0.68648590  0.61903584     0.09830
H1677       H  0.97277486  0.74524608  0.57603870     0.07850
Br1678     Br  0.95914004  0.74768832  0.63163311    -0.02760
C1679       C  0.01218955  0.60536481  0.71750492    -0.09390
C1680       C  0.99548285  0.58976788  0.70210840     0.06800
C1681       C  0.97861814  0.60203401  0.68402821    -0.03160
C1682       C  0.97929578  0.62922846  0.68100648    -0.07610
C1683       C  0.99713416  0.64482085  0.69512115     0.05920
C1684       C  0.01351544  0.63263386  0.71385179    -0.02640
Br1685     Br  0.04006626  0.65141750  0.73289308    -0.02330
H1686       H  0.02536388  0.59614750  0.73133846     0.09830
H1687       H  0.96623745  0.63821624  0.66690205     0.07850
Br1688     Br  0.95410099  0.58280987  0.66283701    -0.02760
C1689       C  0.97806816  0.80318357  0.89659912    -0.09390
C1690       C  0.00169290  0.79834890  0.90967783     0.06800
C1691       C  0.02501077  0.79558427  0.89515853    -0.03160
C1692       C  0.02457628  0.79855348  0.86784592    -0.07610
C1693       C  0.00107621  0.80428934  0.85486171     0.05920
C1694       C  0.97761231  0.80608644  0.86932174    -0.02640
Br1695     Br  0.94473589  0.81328533  0.85261079    -0.02330
H1696       H  0.96006136  0.80536316  0.90770809     0.09830
H1697       H  0.04273459  0.79741175  0.85683953     0.07850
Br1698     Br  0.05798878  0.78940517  0.91201289    -0.02760
C1699       C  0.97965984  0.88871058  0.79843418    -0.09390
C1700       C  0.99975535  0.87378338  0.78698515     0.06800
C1701       C  0.01873663  0.88648132  0.77129000    -0.03160
C1702       C  0.01747376  0.91371978  0.76762146    -0.07610
C1703       C  0.99796733  0.92868071  0.78003060     0.05920
C1704       C  0.97876974  0.91589633  0.79531433    -0.02640
Br1705     Br  0.95081973  0.93452098  0.81238435    -0.02330
H1706       H  0.96486500  0.87918543  0.81040873     0.09830
H1707       H  0.03259535  0.92341984  0.75621930     0.07850
Br1708     Br  0.04823976  0.86812697  0.75681690    -0.02760
C1709       C  0.02162422  0.77801248  0.74177036    -0.09390
C1710       C  0.00093011  0.77904718  0.75990239     0.06800
C1711       C  0.98038967  0.76058564  0.75802941    -0.03160
C1712       C  0.98092527  0.74142744  0.73831862    -0.07610
C1713       C  0.00169057  0.74026442  0.72021554     0.05920
C1714       C  0.02228169  0.75873086  0.72217189    -0.02640
Br1715     Br  0.05263861  0.75749988  0.69987501    -0.02330
H1716       H  0.03763769  0.79195689  0.74323270     0.09830
H1717       H  0.96489183  0.72750283  0.73693975     0.07850
Br1718     Br  0.95059199  0.76142863  0.78109301    -0.02760
C1719       C  0.68938575  0.02550140  0.61123825    -0.09390
C1720       C  0.70461944  0.00855728  0.62668771     0.06800
C1721       C  0.72343939  0.99254411  0.61409845    -0.03160
C1722       C  0.72598632  0.99326530  0.58661754    -0.07610
C1723       C  0.70947914  0.00909141  0.57131118     0.05920
C1724       C  0.69131380  0.02560605  0.58396002    -0.02640
Br1725     Br  0.66892660  0.04933829  0.56518166    -0.02330
H1726       H  0.67541569  0.03854619  0.62045187     0.09830
H1727       H  0.74012490  0.98057418  0.57710486     0.07850
Br1728     Br  0.74452814  0.96776116  0.63285841    -0.02760
C1729       C  0.59320602  0.02734171  0.68422964    -0.09390
C1730       C  0.58186156  0.01133192  0.70348909     0.06800
C1731       C  0.59844764  0.99684330  0.72021748    -0.03160
C1732       C  0.62569025  0.99719856  0.71608238    -0.07610
C1733       C  0.63681781  0.01263277  0.69609349     0.05920
C1734       C  0.62026860  0.02896538  0.68116311    -0.02640
Br1735     Br  0.63329312  0.05511679  0.65730096    -0.02330
H1736       H  0.58091030  0.03892701  0.67148296     0.09830
H1737       H  0.63810743  0.98479468  0.72798358     0.07850
Br1738     Br  0.58514894  0.97492802  0.74769045    -0.02760
C1739       C  0.78144297  0.99918380  0.86548452    -0.09390
C1740       C  0.79961083  0.01727917  0.85510597     0.06800
C1741       C  0.81250453  0.03459356  0.87257952    -0.03160
C1742       C  0.80862323  0.03230666  0.89960149    -0.07610
C1743       C  0.79130798  0.01364223  0.90999418     0.05920
C1744       C  0.77704587  0.99741502  0.89266576    -0.02640
Br1745     Br  0.75293659  0.97127128  0.90510423    -0.02330
H1746       H  0.77125105  0.98576014  0.85248703     0.09830
H1747       H  0.81912808  0.04543675  0.91267615     0.07850
Br1748     Br  0.83453937  0.06287235  0.86113364    -0.02760
C1749       C  0.90945249  0.03583141  0.78597841    -0.09390
C1750       C  0.92101419  0.01309057  0.77579048     0.06800
C1751       C  0.90491259  0.99218092  0.76742084    -0.03160
C1752       C  0.87772646  0.99342725  0.77152097    -0.07610
C1753       C  0.86635258  0.01566494  0.78319728     0.05920
C1754       C  0.88231959  0.03748528  0.78908587    -0.02640
Br1755     Br  0.86792073  0.07031242  0.80039661    -0.02330
H1756       H  0.92163277  0.05236065  0.79164099     0.09830
H1757       H  0.86558137  0.97669829  0.76644484     0.07850
Br1758     Br  0.91929862  0.96108064  0.75184672    -0.02760
C1759       C  0.75710108  0.03639669  0.75464227    -0.09390
C1760       C  0.77095518  0.01346213  0.76077303     0.06800
C1761       C  0.76503474  0.98999769  0.74734986    -0.03160
C1762       C  0.74567025  0.98979321  0.72791263    -0.07610
C1763       C  0.73187533  0.01272763  0.72170498     0.05920
C1764       C  0.73768716  0.03617907  0.73521102    -0.02640
Br1765     Br  0.72027464  0.06845536  0.72702752    -0.02330
H1766       H  0.76166666  0.05457470  0.76475061     0.09830
H1767       H  0.74117361  0.97162260  0.71775452     0.07850
Br1768     Br  0.78238200  0.95767437  0.75552475    -0.02760
C1769       C  0.72454944  0.63373271  0.00174777    -0.09390
C1770       C  0.70578957  0.64458554  0.98478695     0.06800
C1771       C  0.69254230  0.62786227  0.96706614    -0.03160
C1772       C  0.69605282  0.60073617  0.96859497    -0.07610
C1773       C  0.71346654  0.58972754  0.98678035     0.05920
C1774       C  0.72873061  0.60656677  0.00259317    -0.02640
Br1775     Br  0.75396704  0.59366229  0.02709712    -0.02330
H1776       H  0.73514187  0.64629148  0.01528028     0.09830
H1777       H  0.68491616  0.58808875  0.95557675     0.07850
Br1778     Br  0.66998077  0.64089453  0.93988947    -0.02760
C1779       C  0.62540636  0.73156502  0.98158509    -0.09390
C1780       C  0.63595501  0.71173855  0.99757363     0.06800
C1781       C  0.61885543  0.69680750  0.01343674    -0.03160
C1782       C  0.59185537  0.70031705  0.01140948    -0.07610
C1783       C  0.58119570  0.71957984  0.99499884     0.05920
C1784       C  0.59826444  0.73576139  0.98039851    -0.02640
Br1785     Br  0.58558656  0.76207425  0.95674433    -0.02330
H1786       H  0.63822824  0.74315916  0.96918707     0.09830
H1787       H  0.57907648  0.68783522  0.02282811     0.07850
Br1788     Br  0.63107530  0.67211528  0.03912987    -0.02760
C1789       C  0.88007297  0.82658618  0.99844093    -0.09390
C1790       C  0.86501316  0.80697762  0.98614314     0.06800
C1791       C  0.87820863  0.78499878  0.97546791    -0.03160
C1792       C  0.90563174  0.78309147  0.97778556    -0.07610
C1793       C  0.92055868  0.80358566  0.98889478     0.05920
C1794       C  0.90726694  0.82595370  0.99846673    -0.02640
Br1795     Br  0.92402429  0.85758137  0.01047796    -0.02330
H1796       H  0.87064118  0.84341564  0.00737902     0.09830
H1797       H  0.91545338  0.76613132  0.96954758     0.07850
Br1798     Br  0.86075517  0.75843486  0.95518994    -0.02760
C1799       C  0.81303808  0.88846266  0.00373484    -0.09390
C1800       C  0.79599944  0.87341171  0.98811242     0.06800
C1801       C  0.77550279  0.88613067  0.97466405    -0.03160
C1802       C  0.77320765  0.91355383  0.97617420    -0.07610
C1803       C  0.79134071  0.92860900  0.99057111     0.05920
C1804       C  0.81107557  0.91568073  0.00491063    -0.02640
Br1805     Br  0.83575928  0.93374845  0.02703767    -0.02330
H1806       H  0.82845277  0.87894237  0.01478123     0.09830
H1807       H  0.75788714  0.92322817  0.96515299     0.07850
Br1808     Br  0.75153069  0.86750748  0.95237029    -0.02760
C1809       C  0.74906309  0.77970109  0.97576647    -0.09390
C1810       C  0.76990859  0.77847309  0.99370894     0.06800
C1811       C  0.77057623  0.75769435  0.01200420    -0.03160
C1812       C  0.75093358  0.73841765  0.01156242    -0.07610
C1813       C  0.73024556  0.73966736  0.99344864     0.05920
C1814       C  0.72936144  0.76065644  0.97551203    -0.02640
Br1815     Br  0.70267053  0.76355021  0.94912538    -0.02330
H1816       H  0.74837569  0.79536130  0.96141839     0.09830
H1817       H  0.75159837  0.72253570  0.02565902     0.07850
Br1818     Br  0.79666222  0.75541936  0.03901958    -0.02760
C1819       C  0.69141118  0.49193340  0.87016515    -0.09390
C1820       C  0.70679936  0.50967897  0.85577400     0.06800
C1821       C  0.72575935  0.52482454  0.86931521    -0.03160
C1822       C  0.72811177  0.52260973  0.89670732    -0.07610
C1823       C  0.71122185  0.50624388  0.91110686     0.05920
C1824       C  0.69298421  0.49059171  0.89741037    -0.02640
Br1825     Br  0.66921961  0.46710578  0.91442202    -0.02330
H1826       H  0.67717803  0.47964962  0.86018300     0.09830
H1827       H  0.74212804  0.53491612  0.90695381     0.07850
Br1828     Br  0.74703045  0.55080863  0.85233092    -0.02760
C1829       C  0.62189864  0.53546749  0.80260646    -0.09390
C1830       C  0.63775192  0.51871411  0.78754340     0.06800
C1831       C  0.62564757  0.50194202  0.76894144    -0.03160
C1832       C  0.59826059  0.50194905  0.76626107    -0.07610
C1833       C  0.58250288  0.51762144  0.78254898     0.05920
C1834       C  0.59466179  0.53468264  0.80070191    -0.02640
Br1835     Br  0.57538876  0.55737626  0.82380018    -0.02330
H1836       H  0.63076503  0.54872217  0.81672010     0.09830
H1837       H  0.58916190  0.48853875  0.75245138     0.07850
Br1838     Br  0.64482524  0.47653109  0.74875564    -0.02760
C1839       C  0.77598664  0.49080251  0.58393060    -0.09390
C1840       C  0.78984822  0.50949448  0.56918871     0.06800
C1841       C  0.80547326  0.52821651  0.58220322    -0.03160
C1842       C  0.80780643  0.52739859  0.60943421    -0.07610
C1843       C  0.79526611  0.50779863  0.62422389     0.05920
C1844       C  0.77880891  0.48962661  0.61129203    -0.02640
Br1845     Br  0.76183239  0.46140698  0.62943422    -0.02330
H1846       H  0.76403199  0.47624126  0.57401439     0.09830
H1847       H  0.82006404  0.54184002  0.61911510     0.07850
Br1848     Br  0.82393126  0.55549637  0.56378735    -0.02760
C1849       C  0.87459386  0.49724732  0.71383357    -0.09390
C1850       C  0.86425923  0.51110895  0.69237660     0.06800
C1851       C  0.88152738  0.52615514  0.67670926    -0.03160
C1852       C  0.90848309  0.52431310  0.68049558    -0.07610
C1853       C  0.91896537  0.50951983  0.70110301     0.05920
C1854       C  0.90162873  0.49704545  0.71878754    -0.02640
Br1855     Br  0.91335842  0.47899609  0.74954505    -0.02330
H1856       H  0.86168486  0.48614302  0.72657516     0.09830
H1857       H  0.92137836  0.53507842  0.66748820     0.07850
Br1858     Br  0.86979942  0.55135902  0.65127898    -0.02760
C1859       C  0.77040081  0.53176168  0.73748590    -0.09390
C1860       C  0.76960745  0.51072162  0.71962586     0.06800
C1861       C  0.74988462  0.49144407  0.72236562    -0.03160
C1862       C  0.73128457  0.49368781  0.74241271    -0.07610
C1863       C  0.73216405  0.51466540  0.76024684     0.05920
C1864       C  0.75190772  0.53384717  0.75767995    -0.02640
Br1865     Br  0.75371098  0.56385653  0.78038226    -0.02330
H1866       H  0.78534357  0.54679126  0.73554804     0.09830
H1867       H  0.71630913  0.47869293  0.74443088     0.07850
Br1868     Br  0.74840684  0.46066908  0.70067223    -0.02760
C1869       C  0.71461111  0.88574571  0.51074598    -0.09390
C1870       C  0.70631460  0.87309882  0.48772416     0.06800
C1871       C  0.70228969  0.88785990  0.46475669    -0.03160
C1872       C  0.70554322  0.91509447  0.46534163    -0.07610
C1873       C  0.71296765  0.92784795  0.48857510     0.05920
C1874       C  0.71787967  0.91302906  0.51131897    -0.02640
Br1875     Br  0.72676733  0.92946937  0.54403575    -0.02330
H1876       H  0.71740484  0.87451910  0.52856358     0.09830
H1877       H  0.70168149  0.92642826  0.44779135     0.07850
Br1878     Br  0.69172353  0.87163197  0.43241107    -0.02760
C1879       C  0.59645945  0.78458195  0.50416949    -0.09390
C1880       C  0.58118440  0.79959770  0.48695107     0.06800
C1881       C  0.59375435  0.81686567  0.46938868    -0.03160
C1882       C  0.62096076  0.81928006  0.46962524    -0.07610
C1883       C  0.63629177  0.80548104  0.48779917     0.05920
C1884       C  0.62378288  0.78776024  0.50512590    -0.02640
Br1885     Br  0.64232034  0.76961893  0.53233374    -0.02330
H1886       H  0.58699010  0.77141612  0.51792138     0.09830
H1887       H  0.63019603  0.83266576  0.45590111     0.07850
Br1888     Br  0.57494697  0.83777434  0.44451327    -0.02760
C1889       C  0.81055425  0.62914199  0.47325509    -0.09390
C1890       C  0.79581211  0.64355795  0.49155534     0.06800
C1891       C  0.77759990  0.63027160  0.50763426    -0.03160
C1892       C  0.77511603  0.60289026  0.50566983    -0.07610
C1893       C  0.79102461  0.58848829  0.48832258     0.05920
C1894       C  0.80859217  0.60194440  0.47175533    -0.02640
Br1895     Br  0.83038789  0.58445308  0.44646278    -0.02330
H1896       H  0.82430545  0.63912444  0.46042955     0.09830
H1897       H  0.76166516  0.59270101  0.51862942     0.07850
Br1898     Br  0.75755191  0.64805365  0.53409452    -0.02760
C1899       C  0.88008297  0.69352136  0.47677185    -0.09390
C1900       C  0.86461300  0.71125136  0.49117707     0.06800
C1901       C  0.87717282  0.73226905  0.50430980    -0.03160
C1902       C  0.90456859  0.73479587  0.50300453    -0.07610
C1903       C  0.91995387  0.71603997  0.48983805     0.05920
C1904       C  0.90730581  0.69512010  0.47670116    -0.02640
Br1905     Br  0.92549719  0.66753226  0.45839187    -0.02330
H1906       H  0.87092091  0.67759414  0.46600373     0.09830
H1907       H  0.91398304  0.75079442  0.51343308     0.07850
Br1908     Br  0.85866268  0.75659891  0.52634983    -0.02760
C1909       C  0.77016339  0.75818832  0.50749453    -0.09390
C1910       C  0.76976116  0.73862010  0.48807540     0.06800
C1911       C  0.74983521  0.73899353  0.46890340    -0.03160
C1912       C  0.73074181  0.75867979  0.46958464    -0.07610
C1913       C  0.73114486  0.77822932  0.48907851     0.05920
C1914       C  0.75106565  0.77776446  0.50825833    -0.02640
Br1915     Br  0.75229726  0.80221956  0.53699890    -0.02330
H1916       H  0.78513568  0.75787893  0.52256142     0.09830
H1917       H  0.71571705  0.75896473  0.45457950     0.07850
Br1918     Br  0.74852151  0.71408134  0.44059797    -0.02760
C1919       C  0.52090332  0.70541660  0.87119685    -0.09390
C1920       C  0.50048291  0.71686266  0.85673098     0.06800
C1921       C  0.48188138  0.73253779  0.86994367    -0.03160
C1922       C  0.48363627  0.73591326  0.89718020    -0.07610
C1923       C  0.50307908  0.72306799  0.91165625     0.05920
C1924       C  0.52216684  0.70817907  0.89842737    -0.02640
Br1925     Br  0.55046370  0.69144264  0.91667610    -0.02330
H1926       H  0.53556719  0.69362435  0.86130486     0.09830
H1927       H  0.46893098  0.74743985  0.90724735     0.07850
Br1928     Br  0.45209649  0.74726901  0.85254184    -0.02760
C1929       C  0.52073509  0.60505935  0.79667759    -0.09390
C1930       C  0.50117382  0.59283980  0.78176297     0.06800
C1931       C  0.48235242  0.60835253  0.76890414    -0.03160
C1932       C  0.48259574  0.63568628  0.77234496    -0.07610
C1933       C  0.50161405  0.64778011  0.78826524     0.05920
C1934       C  0.52141873  0.63224552  0.79963132    -0.02640
Br1935     Br  0.55030069  0.64703865  0.81887361    -0.02330
H1936       H  0.53558858  0.59336335  0.80613657     0.09830
H1937       H  0.46729314  0.64738427  0.76348202     0.07850
Br1938     Br  0.45472944  0.59296941  0.74846664    -0.02760
C1939       C  0.52363702  0.79712963  0.61374921    -0.09390
C1940       C  0.50005190  0.80386502  0.62622868     0.06800
C1941       C  0.47685839  0.80550161  0.61141989    -0.03160
C1942       C  0.47776003  0.80193769  0.58426409    -0.07610
C1943       C  0.50150446  0.79650814  0.57159611     0.05920
C1944       C  0.52446790  0.79339030  0.58649752    -0.02640
Br1945     Br  0.55744697  0.78558824  0.57021803    -0.02330
H1946       H  0.54154531  0.79578407  0.62506318     0.09830
H1947       H  0.45996388  0.80394457  0.57291941     0.07850
Br1948     Br  0.44362303  0.81295396  0.62740206    -0.02760
C1949       C  0.51114912  0.88556532  0.71309547    -0.09390
C1950       C  0.49519829  0.87503023  0.69315686     0.06800
C1951       C  0.47884078  0.89222266  0.67890066    -0.03160
C1952       C  0.48052239  0.91926696  0.68303080    -0.07610
C1953       C  0.49733950  0.92986472  0.70206712     0.05920
C1954       C  0.51198083  0.91266061  0.71793247    -0.02640
Br1955     Br  0.53452170  0.92490045  0.74539247    -0.02330
H1956       H  0.52363331  0.87276939  0.72449779     0.09830
H1957       H  0.46834166  0.93217149  0.67139061     0.07850
Br1958     Br  0.45258195  0.88027698  0.65465198    -0.02760
C1959       C  0.47853732  0.78002016  0.73945602    -0.09390
C1960       C  0.49941374  0.78063370  0.72149472     0.06800
C1961       C  0.51963793  0.76192526  0.72372939    -0.03160
C1962       C  0.51854471  0.74298233  0.74354834    -0.07610
C1963       C  0.49762101  0.74234197  0.76146317     0.05920
C1964       C  0.47742825  0.76103859  0.75922131    -0.02640
Br1965     Br  0.44704277  0.76053101  0.78140572    -0.02330
H1966       H  0.46271163  0.79405118  0.73773647     0.09830
H1967       H  0.53429720  0.72886181  0.74521331     0.07850
Br1968     Br  0.54985940  0.76211927  0.70120044    -0.02760
loop_ 
_geom_bond_atom_site_label_1 
_geom_bond_atom_site_label_2 
_geom_bond_distance 
_geom_bond_site_symmetry_2 
_ccdc_geom_bond_type 
C1            C2   1.408       .  A
C1            C6   1.404       .  A
C1         C1960   1.481       .  S
C2            C3   1.407       .  A
C2            H7   1.084       .  S
C3            C4   1.404       .  A
C3         C1950   1.489       .  S
C4            C5   1.399       .  A
C4            H8   1.083       .  S
C5            C6   1.398       .  A
C5         C1940   1.471       .  S
C6            H9   1.084       .  S
C10          C11   1.408       .  A
C10          C15   1.407       .  A
C10        C1963   1.480       .  S
C11          C12   1.404       .  A
C11          H16   1.084       .  S
C12          C13   1.400       .  A
C12        C1920   1.481       .  S
C13          C14   1.400       .  A
C13          H17   1.084       .  S
C14          C15   1.402       .  A
C14        C1933   1.480       .  S
C15          H18   1.084       .  S
C19          C20   1.409       .  A
C19          C24   1.407       .  A
C19        C1910   1.480       .  S
C20          C21   1.405       .  A
C20          H25   1.082       .  S
C21          C22   1.402       .  A
C21        C1900   1.491       .  S
C22          C23   1.398       .  A
C22          H26   1.084       .  S
C23          C24   1.401       .  A
C23        C1890   1.481       .  S
C24          H27   1.083       .  S
C28          C29   1.408       .  A
C28          C33   1.406       .  A
C28        C1913   1.481       .  S
C29          C30   1.406       .  A
C29          H34   1.083       .  S
C30          C31   1.404       .  A
C30        C1883   1.486       .  S
C31          C32   1.397       .  A
C31          H35   1.084       .  S
C32          C33   1.397       .  A
C32        C1870   1.472       .  S
C33          H36   1.084       .  S
C37          C38   1.408       .  A
C37          C42   1.407       .  A
C37        C1860   1.481       .  S
C38          C39   1.403       .  A
C38          H43   1.083       .  S
C39          C40   1.400       .  A
C39        C1843   1.482       .  S
C40          C41   1.401       .  A
C40          H44   1.084       .  S
C41          C42   1.404       .  A
C41        C1850   1.488       .  S
C42          H45   1.083       .  S
C46          C47   1.405       .  A
C46          C51   1.407       .  A
C46        C1863   1.476       .  S
C47          C48   1.401       .  A
C47          H52   1.083       .  S
C48          C49   1.403       .  A
C48        C1830   1.489       .  S
C49          C50   1.405       .  A
C49          H53   1.084       .  S
C50          C51   1.404       .  A
C50        C1820   1.490       .  S
C51          H54   1.083       .  S
C55          C56   1.408       .  A
C55          C60   1.411       .  A
C55        C1810   1.484       .  S
C56          C57   1.399       .  A
C56          H61   1.083       .  S
C57          C58   1.397       .  A
C57        C1800   1.484       .  S
C58          C59   1.404       .  A
C58          H62   1.084       .  S
C59          C60   1.407       .  A
C59        C1790   1.496       .  S
C60          H63   1.080       .  S
C64          C65   1.406       .  A
C64          C69   1.406       .  A
C64        C1813   1.479       .  S
C65          C66   1.402       .  A
C65          H70   1.084   1_556  S
C66          C67   1.402       .  A
C66        C1780   1.484       .  S
C67          C68   1.402       .  A
C67          H71   1.083       .  S
C68          C69   1.404       .  A
C68        C1770   1.485       .  S
C69          H72   1.084       .  S
C73          C74   1.405       .  A
C73          C78   1.406       .  A
C73        C1760   1.477       .  S
C74          C75   1.400       .  A
C74          H79   1.084       .  S
C75          C76   1.403       .  A
C75        C1753   1.480       .  S
C76          C77   1.406       .  A
C76          H80   1.084       .  S
C77          C78   1.407       .  A
C77        C1740   1.492       .  S
C78          H81   1.084       .  S
C82          C83   1.407       .  A
C82          C87   1.408       .  A
C82        C1763   1.477       .  S
C83          C84   1.403       .  A
C83          H88   1.084       .  S
C84          C85   1.401       .  A
C84        C1733   1.486       .  S
C85          C86   1.403       .  A
C85          H89   1.084       .  S
C86          C87   1.406       .  A
C86        C1720   1.491       .  S
C87          H90   1.083       .  S
C91          C92   1.406       .  A
C91          C96   1.405       .  A
C91        C1710   1.478       .  S
C92          C93   1.404       .  A
C92          H97   1.084       .  S
C93          C94   1.402       .  A
C93        C1700   1.481   1_455  S
C94          C95   1.398       .  A
C94          H98   1.085       .  S
C95          C96   1.400       .  A
C95        C1693   1.471       .  S
C96          H99   1.084       .  S
C100        C101   1.407   1_455  A
C100        C105   1.407       .  A
C100       C1713   1.482       .  S
C101        C102   1.404       .  A
C101        H106   1.083       .  S
C102        C103   1.404   1_655  A
C102       C1683   1.488       .  S
C103        C104   1.402       .  A
C103        H107   1.084       .  S
C104        C105   1.403       .  A
C104       C1670   1.486       .  S
C105        H108   1.083       .  S
C109        C110   1.408       .  A
C109        C114   1.409       .  A
C109       C1660   1.486       .  S
C110        C111   1.402       .  A
C110        H115   1.084       .  S
C111        C112   1.399       .  A
C111       C1653   1.476       .  S
C112        C113   1.401       .  A
C112        H116   1.085       .  S
C113        C114   1.404       .  A
C113       C1640   1.480       .  S
C114        H117   1.084       .  S
C118        C119   1.408       .  A
C118        C123   1.409       .  A
C118       C1663   1.485       .  S
C119        C120   1.402       .  A
C119        H124   1.084       .  S
C120        C121   1.400       .  A
C120       C1630   1.477       .  S
C121        C122   1.400       .  A
C121        H125   1.085       .  S
C122        C123   1.403       .  A
C122       C1620   1.477       .  S
C123        H126   1.084       .  S
O127       Cu135   2.028       .  S
O127        C137   1.279       .  A
O128       Cu135   2.023       .  S
O128        C138   1.279       .  A
O129       Cu135   2.027   1_565  S
O129        C139   1.279       .  A
O130       Cu135   2.027       .  S
O130        C140   1.279       .  A
O131       Cu136   2.000       .  S
O131        C140   1.276       .  A
O132       Cu136   1.995   1_565  S
O132        C139   1.277       .  A
O133       Cu136   1.998       .  S
O133        C138   1.277       .  A
O134       Cu136   1.997       .  S
O134        C137   1.277       .  A
Cu135      Cu136   2.374       .  S
C137       C1730   1.481       .  S
C138       C1610   1.475       .  S
C139       C1953   1.479       .  S
C140       C1643   1.473       .  S
C141        C142   1.404       .  A
C141        C146   1.406   1_655  A
C141       C1600   1.477       .  S
C142        C143   1.400       .  A
C142        H147   1.084       .  S
C143        C144   1.399       .  A
C143       C1593   1.474       .  S
C144        C145   1.403   1_655  A
C144        H148   1.084       .  S
C145        C146   1.405       .  A
C145       C1580   1.483       .  S
C146        H149   1.084       .  S
C150        C151   1.404       .  A
C150        C155   1.405       .  A
C150       C1603   1.475       .  S
C151        C152   1.402       .  A
C151        H156   1.084       .  S
C152        C153   1.401       .  A
C152       C1570   1.479       .  S
C153        C154   1.404       .  A
C153        H157   1.084       .  S
C154        C155   1.405       .  A
C154       C1560   1.487   1_455  S
C155        H158   1.083   1_455  S
C159        C160   1.409       .  A
C159        C164   1.409       .  A
C159       C1553   1.485       .  S
C160        C161   1.404       .  A
C160        H165   1.083       .  S
C161        C162   1.402       .  A
C161       C1540   1.487       .  S
C162        C163   1.401       .  A
C162        H166   1.084       .  S
C163        C164   1.406       .  A
C163       C1533   1.490       .  S
C164        H167   1.084       .  S
C168        C169   1.408       .  A
C168        C173   1.408       .  A
C168       C1550   1.483       .  S
C169        C170   1.403       .  A
C169        H174   1.084       .  S
C170        C171   1.400       .  A
C170       C1613   1.484       .  S
C171        C172   1.403       .  A
C171        H175   1.084       .  S
C172        C173   1.405       .  A
C172       C1520   1.488       .  S
C173        H176   1.083       .  S
O177       Cu185   2.020   1_655  S
O177        C187   1.278       .  A
O178       Cu185   2.020       .  S
O178        C188   1.278       .  A
O179       Cu185   2.023   1_565  S
O179        C189   1.279   1_455  A
O180       Cu185   2.025       .  S
O180        C190   1.280       .  A
O181       Cu186   1.993       .  S
O181        C190   1.276       .  A
O182       Cu186   1.994   1_665  S
O182        C189   1.276       .  A
O183       Cu186   2.003       .  S
O183        C188   1.278       .  A
O184       Cu186   2.003   1_655  S
O184        C187   1.277       .  A
Cu185      Cu186   2.372       .  S
C187       C1750   1.471       .  S
C188       C1530   1.480       .  S
C189       C1703   1.473       .  S
C190       C1583   1.474       .  S
C191        C192   1.407       .  A
C191        C196   1.407       .  A
C191       C1510   1.482       .  S
C192        C193   1.405       .  A
C192        H197   1.083       .  S
C193        C194   1.402       .  A
C193       C1500   1.483       .  S
C194        C195   1.397       .  A
C194        H198   1.084       .  S
C195        C196   1.400       .  A
C195       C1490   1.472       .  S
C196        H199   1.084       .  S
C200        C201   1.409       .  A
C200        C205   1.405       .  A
C200       C1513   1.480       .  S
C201        C202   1.407       .  A
C201        H206   1.083       .  S
C202        C203   1.403       .  A
C202       C1483   1.489       .  S
C203        C204   1.399       .  A
C203        H207   1.084       .  S
C204        C205   1.399       .  A
C204       C1470   1.481       .  S
C205        H208   1.084       .  S
O209       Cu217   2.028       .  S
O209        C219   1.280   1_655  A
O210       Cu217   2.028       .  S
O210        C220   1.280       .  A
O211       Cu217   2.017       .  S
O211        C221   1.277       .  A
O212       Cu217   2.016   1_455  S
O212        C222   1.277       .  A
O213       Cu218   1.999       .  S
O213        C222   1.276       .  A
O214       Cu218   2.000   1_655  S
O214        C221   1.278       .  A
O215       Cu218   1.994   1_655  S
O215        C220   1.276       .  A
O216       Cu218   1.998       .  S
O216        C219   1.276       .  A
Cu217      Cu218   2.375   1_655  S
C219       C1573   1.474       .  S
C220       C1680   1.477       .  S
C221       C1853   1.479       .  S
C222       C1493   1.465       .  S
O223       Cu231   1.997       .  S
O223        C233   1.276       .  A
O224       Cu231   1.990       .  S
O224        C234   1.275       .  A
O225       Cu231   2.000       .  S
O225        C235   1.277       .  A
O226       Cu231   2.004       .  S
O226        C236   1.277       .  A
O227       Cu232   2.017       .  S
O227        C236   1.278       .  A
O228       Cu232   2.015       .  S
O228        C235   1.277       .  A
O229       Cu232   2.031       .  S
O229        C234   1.281       .  A
O230       Cu232   2.019       .  S
O230        C233   1.279       .  A
Cu231      Cu232   2.375       .  S
C233       C1480   1.476       .  S
C234       C1833   1.478       .  S
C235       C1930   1.471       .  S
C236       C1633   1.469       .  S
C237        C238   1.404       .  A
C237        C242   1.406       .  A
C237       C1460   1.474       .  S
C238        C239   1.400       .  A
C238        H243   1.084       .  S
C239        C240   1.397       .  A
C239       C1453   1.471       .  S
C240        C241   1.402       .  A
C240        H244   1.085       .  S
C241        C242   1.403       .  A
C241       C1440   1.480       .  S
C242        H245   1.084       .  S
C246        C247   1.406       .  A
C246        C251   1.406       .  A
C246       C1463   1.475       .  S
C247        C248   1.402       .  A
C247        H252   1.083       .  S
C248        C249   1.402       .  A
C248       C1430   1.483       .  S
C249        C250   1.401       .  A
C249        H253   1.084       .  S
C250        C251   1.402       .  A
C250       C1420   1.483       .  S
C251        H254   1.084       .  S
O255       Cu263   2.003       .  S
O255        C265   1.277       .  A
O256       Cu263   1.993       .  S
O256        C266   1.276       .  A
O257       Cu263   1.992   1_554  S
O257        C267   1.276       .  A
O258       Cu263   1.998       .  S
O258        C268   1.277       .  A
O259       Cu264   2.013       .  S
O259        C268   1.277       .  A
O260       Cu264   2.021   1_554  S
O260        C267   1.279       .  A
O261       Cu264   2.026       .  S
O261        C266   1.280       .  A
O262       Cu264   2.019       .  S
O262        C265   1.278       .  A
Cu263      Cu264   2.377       .  S
C265       C1410   1.469       .  S
C266       C1783   1.477       .  S
C267       C1443   1.471       .  S
C268       C1923   1.469       .  S
C269        C270   1.408       .  A
C269        C274   1.409       .  A
C269       C1400   1.485       .  S
C270        C271   1.402       .  A
C270        H275   1.083       .  S
C271        C272   1.400       .  A
C271       C1390   1.481       .  S
C272        C273   1.401       .  A
C272        H276   1.084       .  S
C273        C274   1.404       .  A
C273       C1383   1.484       .  S
C274        H277   1.084       .  S
C278        C279   1.405       .  A
C278        C283   1.407       .  A
C278       C1403   1.481       .  S
C279        C280   1.399       .  A
C279        H284   1.084       .  S
C280        C281   1.401       .  A
C280       C1413   1.476       .  S
C281        C282   1.405       .  A
C281        H285   1.083       .  S
C282        C283   1.408       .  A
C282       C1370   1.493       .  S
C283        H286   1.083       .  S
C287        C288   1.408       .  A
C287        C292   1.408       .  A
C287       C1363   1.482       .  S
C288        C289   1.402       .  A
C288        H293   1.084       .  S
C289        C290   1.399       .  A
C289       C1353   1.480       .  S
C290        C291   1.402       .  A
C290        H294   1.084       .  S
C291        C292   1.403       .  A
C291       C1343   1.483       .  S
C292        H295   1.083       .  S
C296        C297   1.406   1_655  A
C296        C301   1.406       .  A
C296       C1360   1.480       .  S
C297        C298   1.402       .  A
C297        H302   1.084       .  S
C298        C299   1.402       .  A
C298       C1330   1.476       .  S
C299        C300   1.400   1_455  A
C299        H303   1.084       .  S
C300        C301   1.400       .  A
C300       C1320   1.473       .  S
C301        H304   1.084       .  S
O305       Cu313   1.993       .  S
O305        C315   1.276       .  A
O306       Cu313   1.986   1_655  S
O306        C316   1.274       .  A
O307       Cu313   2.009   1_554  S
O307        C317   1.278       .  A
O308       Cu313   1.999       .  S
O308        C318   1.276       .  A
O309       Cu314   2.015       .  S
O309        C318   1.277       .  A
O310       Cu314   2.019   1_554  S
O310        C317   1.278       .  A
O311       Cu314   2.033   1_655  S
O311        C316   1.281       .  A
O312       Cu314   2.024       .  S
O312        C315   1.279       .  A
Cu313      Cu314   2.373       .  S
C315       C1380   1.474       .  S
C316       C1793   1.486       .  S
C317       C1340   1.477   1_455  S
C318       C1690   1.465       .  S
C319        C320   1.407       .  A
C319        C324   1.407       .  A
C319       C1310   1.479       .  S
C320        C321   1.403       .  A
C320        H325   1.083       .  S
C321        C322   1.401       .  A
C321       C1300   1.483       .  S
C322        C323   1.400       .  A
C322        H326   1.084       .  S
C323        C324   1.402       .  A
C323       C1290   1.482       .  S
C324        H327   1.084       .  S
C328        C329   1.408       .  A
C328        C333   1.406       .  A
C328       C1313   1.479       .  S
C329        C330   1.404       .  A
C329        H334   1.083       .  S
C330        C331   1.403       .  A
C330       C1280   1.488       .  S
C331        C332   1.402       .  A
C331        H335   1.084       .  S
C332        C333   1.403       .  A
C332       C1270   1.487       .  S
C333        H336   1.083       .  S
O337       Cu345   2.002   1_655  S
O337        C347   1.276       .  A
O338       Cu345   2.003       .  S
O338        C348   1.277       .  A
O339       Cu345   1.989   1_655  S
O339        C349   1.275       .  A
O340       Cu345   1.986       .  S
O340        C350   1.276       .  A
O341       Cu346   2.025   1_455  S
O341        C350   1.279       .  A
O342       Cu346   2.025       .  S
O342        C349   1.280       .  A
O343       Cu346   2.018   1_455  S
O343        C348   1.278       .  A
O344       Cu346   2.021       .  S
O344        C347   1.278       .  A
Cu345      Cu346   2.373   1_455  S
C347       C1323   1.469       .  S
C348       C1673   1.476       .  S
C349       C1903   1.480       .  S
C350       C1293   1.473       .  S
O351       Cu359   2.024       .  S
O351        C361   1.279       .  A
O352       Cu359   2.026       .  S
O352        C362   1.280       .  A
O353       Cu359   2.014       .  S
O353        C363   1.277       .  A
O354       Cu359   2.017       .  S
O354        C364   1.278       .  A
O355       Cu360   1.997       .  S
O355        C364   1.277       .  A
O356       Cu360   1.998       .  S
O356        C363   1.276       .  A
O357       Cu360   1.995       .  S
O357        C362   1.276       .  A
O358       Cu360   1.995       .  S
O358        C361   1.276       .  A
Cu359      Cu360   2.376       .  S
C361       C1273   1.476       .  S
C362       C1880   1.475       .  S
C363       C1943   1.465       .  S
C364       C1423   1.475       .  S
C365        C366   1.407       .  A
C365        C370   1.405       .  A
C365       C1260   1.478       .  S
C366        C367   1.406       .  A
C366        H371   1.083       .  S
C367        C368   1.405       .  A
C367       C1253   1.490       .  S
C368        C369   1.401       .  A
C368        H372   1.084       .  S
C369        C370   1.402       .  A
C369       C1240   1.480       .  S
C370        H373   1.084       .  S
C374        C375   1.408       .  A
C374        C379   1.406       .  A
C374       C1263   1.478       .  S
C375        C376   1.405       .  A
C375        H380   1.084       .  S
C376        C377   1.401       .  A
C376       C1230   1.482       .  S
C377        C378   1.398       .  A
C377        H381   1.085       .  S
C378        C379   1.400       .  A
C378       C1223   1.473       .  S
C379        H382   1.084       .  S
O383       Cu391   2.019       .  S
O383        C393   1.279       .  A
O384       Cu391   2.023       .  S
O384        C394   1.279       .  A
O385       Cu391   2.023   1_565  S
O385        C395   1.279       .  A
O386       Cu391   2.027       .  S
O386        C396   1.279       .  A
O387       Cu392   1.997       .  S
O387        C396   1.276       .  A
O388       Cu392   1.996   1_565  S
O388        C395   1.276       .  A
O389       Cu392   1.998       .  S
O389        C394   1.278       .  A
O390       Cu392   1.992       .  S
O390        C393   1.276       .  A
Cu391      Cu392   2.375       .  S
C393       C1210   1.471       .  S
C394       C1200   1.481       .  S
C395       C1433   1.474       .  S
C396       C1243   1.472       .  S
O397       Cu405   1.996       .  S
O397        C407   1.275       .  A
O398       Cu405   1.993       .  S
O398        C408   1.276       .  A
O399       Cu405   2.005       .  S
O399        C409   1.277       .  A
O400       Cu405   2.007   1_554  S
O400        C410   1.277       .  A
O401       Cu406   2.013   1_554  S
O401        C410   1.277       .  A
O402       Cu406   2.018       .  S
O402        C409   1.278       .  A
O403       Cu406   2.020       .  S
O403        C408   1.278       .  A
O404       Cu406   2.020       .  S
O404        C407   1.280       .  A
Cu405      Cu406   2.375       .  S
C407       C1190   1.483       .  S
C408       C1180   1.472       .  S
C409       C1623   1.469       .  S
C410       C1220   1.468       .  S
C411        C412   1.407       .  A
C411        C416   1.409       .  A
C411       C1170   1.482       .  S
C412        C413   1.402       .  A
C412        H417   1.082       .  S
C413        C414   1.400       .  A
C413       C1160   1.484       .  S
C414        C415   1.400       .  A
C414        H418   1.085       .  S
C415        C416   1.403       .  A
C415       C1153   1.486       .  S
C416        H419   1.083       .  S
C420        C421   1.408       .  A
C420        C425   1.405       .  A
C420       C1173   1.481       .  S
C421        C422   1.407       .  A
C421        H426   1.084       .  S
C422        C423   1.404       .  A
C422       C1140   1.488       .  S
C423        C424   1.399       .  A
C423        H427   1.084       .  S
C424        C425   1.397       .  A
C424       C1130   1.473       .  S
C425        H428   1.084       .  S
O429       Cu437   2.019   1_655  S
O429        C439   1.279       .  A
O430       Cu437   2.019       .  S
O430        C440   1.278       .  A
O431       Cu437   2.016       .  S
O431        C441   1.278       .  A
O432       Cu437   2.018   1_655  S
O432        C442   1.279       .  A
O433       Cu438   1.994   1_655  S
O433        C442   1.276       .  A
O434       Cu438   1.996       .  S
O434        C441   1.277       .  A
O435       Cu438   1.998       .  S
O435        C440   1.276       .  A
O436       Cu438   2.000   1_655  S
O436        C439   1.277       .  A
Cu437      Cu438   2.375       .  S
C439       C1563   1.477       .  S
C440       C1120   1.466       .  S
C441       C1150   1.474       .  S
C442       C1113   1.472       .  S
O443       Cu451   1.997       .  S
O443        C453   1.277       .  A
O444       Cu451   1.988       .  S
O444        C454   1.276       .  A
O445       Cu451   2.000       .  S
O445        C455   1.276       .  A
O446       Cu451   1.995   1_565  S
O446        C456   1.276       .  A
O447       Cu452   2.020   1_565  S
O447        C456   1.279       .  A
O448       Cu452   2.012       .  S
O448        C455   1.277       .  A
O449       Cu452   2.023       .  S
O449        C454   1.279       .  A
O450       Cu452   2.019       .  S
O450        C453   1.278       .  A
Cu451      Cu452   2.376       .  S
C453       C1523   1.475       .  S
C454       C1103   1.470       .  S
C455       C1133   1.465       .  S
C456       C1283   1.475       .  S
C457        C458   1.406       .  A
C457        C462   1.406       .  A
C457       C1090   1.479       .  S
C458        C459   1.404       .  A
C458        H463   1.084       .  S
C459        C460   1.401       .  A
C459       C1080   1.483       .  S
C460        C461   1.401       .  A
C460        H464   1.084       .  S
C461        C462   1.403       .  A
C461       C1073   1.482       .  S
C462        H465   1.084       .  S
C466        C467   1.409       .  A
C466        C471   1.404       .  A
C466       C1093   1.481       .  S
C467        C468   1.408       .  A
C467        H472   1.082       .  S
C468        C469   1.407       .  A
C468       C1193   1.499       .  S
C469        C470   1.401       .  A
C469        H473   1.083       .  S
C470        C471   1.401       .  A
C470       C1060   1.485       .  S
C471        H474   1.084       .  S
C475        C476   1.405       .  A
C475        C480   1.403       .  A
C475       C1050   1.474       .  S
C476        C477   1.402       .  A
C476        H481   1.084       .  S
C477        C478   1.401       .  A
C477       C1040   1.480       .  S
C478        C479   1.401       .  A
C478        H482   1.084       .  S
C479        C480   1.400       .  A
C479       C1033   1.478       .  S
C480        H483   1.084       .  S
C484        C485   1.407       .  A
C484        C489   1.406       .  A
C484       C1053   1.481       .  S
C485        C486   1.402       .  A
C485        H490   1.083       .  S
C486        C487   1.400       .  A
C486       C1213   1.481       .  S
C487        C488   1.401       .  A
C487        H491   1.084       .  S
C488        C489   1.400       .  A
C488       C1100   1.479       .  S
C489        H492   1.084       .  S
C493        C494   1.405       .  A
C493        C498   1.409       .  A
C493       C1020   1.480   1_455  S
C494        C495   1.399       .  A
C494        H499   1.084       .  S
C495        C496   1.398       .  A
C495       C1010   1.480       .  S
C496        C497   1.406       .  A
C496        H500   1.083       .  S
C497        C498   1.408       .  A
C497       C1003   1.496       .  S
C498        H501   1.082   1_455  S
C502        C503   1.406       .  A
C502        C507   1.407   1_455  A
C502       C1023   1.482   1_455  S
C503        C504   1.400       .  A
C503        H508   1.084       .  S
C504        C505   1.399       .  A
C504       C1123   1.473       .  S
C505        C506   1.403   1_455  A
C505        H509   1.084       .  S
C506        C507   1.404       .  A
C506        C990   1.483       .  S
C507        H510   1.084       .  S
O511       Cu519   2.001   1_655  S
O511        C521   1.277       .  A
O512       Cu519   1.986       .  S
O512        C522   1.275       .  A
O513       Cu519   2.008   1_565  S
O513        C523   1.278       .  A
O514       Cu519   1.994       .  S
O514        C524   1.276       .  A
O515       Cu520   2.015       .  S
O515        C524   1.278       .  A
O516       Cu520   2.013   1_565  S
O516        C523   1.277       .  A
O517       Cu520   2.021       .  S
O517        C522   1.279       .  A
O518       Cu520   2.014   1_655  S
O518        C521   1.278       .  A
Cu519      Cu520   2.377       .  S
C521        C980   1.472       .  S
C522       C1043   1.471       .  S
C523       C1350   1.471       .  S
C524       C1013   1.467       .  S
O525       Cu533   1.997       .  S
O525        C535   1.277       .  A
O526       Cu533   1.985   1_554  S
O526        C536   1.275       .  A
O527       Cu533   1.999       .  S
O527        C537   1.277       .  A
O528       Cu533   1.990   1_565  S
O528        C538   1.276       .  A
O529       Cu534   2.024   1_565  S
O529        C538   1.279       .  A
O530       Cu534   2.018       .  S
O530        C537   1.278       .  A
O531       Cu534   2.020   1_554  S
O531        C536   1.279       .  A
O532       Cu534   2.017       .  S
O532        C535   1.278       .  A
Cu533      Cu534   2.376       .  S
C535       C1543   1.472       .  S
C536       C1030   1.469       .  S
C537       C1070   1.474       .  S
C538       C1393   1.472       .  S
O539       Cu547   1.994       .  S
O539        C549   1.275       .  A
O540       Cu547   1.995   1_454  S
O540        C550   1.275       .  A
O541       Cu547   2.001       .  S
O541        C551   1.277       .  A
O542       Cu547   2.003   1_455  S
O542        C552   1.278       .  A
O543       Cu548   2.013       .  S
O543        C552   1.277       .  A
O544       Cu548   2.019   1_655  S
O544        C551   1.278       .  A
O545       Cu548   2.028   1_554  S
O545        C550   1.281       .  A
O546       Cu548   2.023   1_655  S
O546        C549   1.279       .  A
Cu547      Cu548   2.372   1_655  S
C549       C1590   1.468       .  S
C550       C1000   1.486       .  S
C551        C970   1.473       .  S
C552       C1083   1.476       .  S
C553        C554   1.408       .  A
C553        C558   1.405       .  A
C553        C960   1.480       .  S
C554        C555   1.406       .  A
C554        H559   1.083       .  S
C555        C556   1.402       .  A
C555        C950   1.488       .  S
C556        C557   1.401       .  A
C556        H560   1.084       .  S
C557        C558   1.402       .  A
C557        C940   1.485       .  S
C558        H561   1.083       .  S
C562        C563   1.407       .  A
C562        C567   1.407       .  A
C562        C963   1.481       .  S
C563        C564   1.404       .  A
C563        H568   1.083       .  S
C564        C565   1.403       .  A
C564        C930   1.490       .  S
C565        C566   1.401       .  A
C565        H569   1.084       .  S
C566        C567   1.401       .  A
C566        C920   1.482       .  S
C567        H570   1.083       .  S
O571       Cu579   1.994       .  S
O571        C581   1.275       .  A
O572       Cu579   2.000       .  S
O572        C582   1.277       .  A
O573       Cu579   1.998       .  S
O573        C583   1.277       .  A
O574       Cu579   1.997   1_655  S
O574        C584   1.276       .  A
O575       Cu580   2.014   1_655  S
O575        C584   1.277       .  A
O576       Cu580   2.016       .  S
O576        C583   1.278       .  A
O577       Cu580   2.019       .  S
O577        C582   1.279       .  A
O578       Cu580   2.028       .  S
O578        C581   1.279       .  A
Cu579      Cu580   2.376       .  S
C581       C1333   1.470       .  S
C582        C993   1.476       .  S
C583        C943   1.474       .  S
C584        C910   1.465       .  S
O585       Cu593   2.030       .  S
O585        C595   1.280       .  A
O586       Cu593   2.024       .  S
O586        C596   1.279       .  A
O587       Cu593   2.021       .  S
O587        C597   1.278       .  A
O588       Cu593   2.022   1_554  S
O588        C598   1.279       .  A
O589       Cu594   1.992   1_554  S
O589        C598   1.276       .  A
O590       Cu594   1.988       .  S
O590        C597   1.276       .  A
O591       Cu594   1.995       .  S
O591        C596   1.277       .  A
O592       Cu594   1.988       .  S
O592        C595   1.275       .  A
Cu593      Cu594   2.374       .  S
C595       C1063   1.474       .  S
C596       C1373   1.480       .  S
C597       C1473   1.473       .  S
C598        C923   1.474       .  S
O599       Cu607   1.994       .  S
O599        C609   1.277       .  A
O600       Cu607   1.993       .  S
O600        C610   1.276       .  A
O601       Cu607   1.990       .  S
O601        C611   1.276       .  A
O602       Cu607   1.998       .  S
O602        C612   1.277       .  A
O603       Cu608   2.014       .  S
O603        C612   1.278       .  A
O604       Cu608   2.017       .  S
O604        C611   1.278       .  A
O605       Cu608   2.017       .  S
O605        C610   1.279       .  A
O606       Cu608   2.017       .  S
O606        C609   1.278       .  A
Cu607      Cu608   2.375       .  S
C609       C1503   1.473       .  S
C610        C953   1.473       .  S
C611       C1163   1.472       .  S
C612       C1303   1.471       .  S
O613       Cu621   1.996       .  S
O613        C623   1.277       .  A
O614       Cu621   1.996       .  S
O614        C624   1.277       .  A
O615       Cu621   1.993       .  S
O615        C625   1.275       .  A
O616       Cu621   2.003       .  S
O616        C626   1.276       .  A
O617       Cu622   2.022       .  S
O617        C626   1.278       .  A
O618       Cu622   2.028       .  S
O618        C625   1.280       .  A
O619       Cu622   2.021       .  S
O619        C624   1.278       .  A
O620       Cu622   2.017       .  S
O620        C623   1.278       .  A
Cu621      Cu622   2.375       .  S
C623        C900   1.472       .  S
C624       C1143   1.476       .  S
C625       C1250   1.479       .  S
C626       C1650   1.470       .  S
O627       Cu635   2.020       .  S
O627        C637   1.279       .  A
O628       Cu635   2.021       .  S
O628        C638   1.279       .  A
O629       Cu635   2.010       .  S
O629        C639   1.277       .  A
O630       Cu635   2.014       .  S
O630        C640   1.278       .  A
O631       Cu636   2.007       .  S
O631        C640   1.278       .  A
O632       Cu636   2.002       .  S
O632        C639   1.276       .  A
O633       Cu636   1.991       .  S
O633        C638   1.276       .  A
O634       Cu636   1.994       .  S
O634        C637   1.276       .  A
Cu635      Cu636   2.374       .  S
C637        C933   1.476       .  S
C638        C893   1.474       .  S
C639       C1450   1.464       .  S
C640       C1233   1.474       .  S
C641        C642   1.407       .  A
C641        C646   1.406       .  A
C641        C880   1.478       .  S
C642        C643   1.404       .  A
C642        H647   1.083       .  S
C643        C644   1.403       .  A
C643        C890   1.487       .  S
C644        C645   1.402       .  A
C644        H648   1.083       .  S
C645        C646   1.404       .  A
C645        C873   1.487       .  S
C646        H649   1.084       .  S
C650        C651   1.405       .  A
C650        C655   1.407       .  A
C650        C883   1.479       .  S
C651        C652   1.398       .  A
C651        H656   1.084       .  S
C652        C653   1.400       .  A
C652        C913   1.473       .  S
C653        C654   1.403       .  A
C653        H657   1.084       .  S
C654        C655   1.406       .  A
C654        C860   1.488       .  S
C655        H658   1.084       .  S
O659       Cu667   2.002       .  S
O659        C669   1.277       .  A
O660       Cu667   2.002   1_554  S
O660        C670   1.278       .  A
O661       Cu667   1.994       .  S
O661        C671   1.276       .  A
O662       Cu667   1.983       .  S
O662        C672   1.273       .  A
O663       Cu668   2.035       .  S
O663        C672   1.281       .  A
O664       Cu668   2.030       .  S
O664        C671   1.280       .  A
O665       Cu668   2.022   1_554  S
O665        C670   1.278       .  A
O666       Cu668   2.026       .  S
O666        C669   1.279       .  A
Cu667      Cu668   2.370       .  S
C669       C1823   1.480       .  S
C670        C870   1.478       .  S
C671       C1773   1.478       .  S
C672        C850   1.485       .  S
C673        C674   1.407       .  A
C673        C678   1.408       .  A
C673        C840   1.481       .  S
C674        C675   1.403       .  A
C674        H679   1.083       .  S
C675        C676   1.403       .  A
C675        C973   1.484       .  S
C676        C677   1.400       .  A
C676        H680   1.084       .  S
C677        C678   1.402       .  A
C677        C830   1.484       .  S
C678        H681   1.084       .  S
C682        C683   1.405       .  A
C682        C687   1.409       .  A
C682        C843   1.478       .  S
C683        C684   1.397       .  A
C683        H688   1.084       .  S
C684        C685   1.397       .  A
C684       C1183   1.479       .  S
C685        C686   1.407       .  A
C685        H689   1.084   1_556  S
C686        C687   1.408       .  A
C686        C853   1.497       .  S
C687        H690   1.081       .  S
C691        C692   1.409       .  A
C691        C696   1.408       .  A
C691        C823   1.485       .  S
C692        C693   1.405       .  A
C692        H697   1.083       .  S
C693        C694   1.401       .  A
C693        C983   1.484       .  S
C694        C695   1.402       .  A
C694        H698   1.084       .  S
C695        C696   1.404       .  A
C695        C810   1.486       .  S
C696        H699   1.084       .  S
C700        C701   1.406       .  A
C700        C705   1.407       .  A
C700        C820   1.480       .  S
C701        C702   1.404       .  A
C701        H706   1.084       .  S
C702        C703   1.403       .  A
C702       C1203   1.488       .  S
C703        C704   1.401       .  A
C703        H707   1.082       .  S
C704        C705   1.403       .  A
C704        C800   1.486       .  S
C705        H708   1.084       .  S
O709       Cu717   1.997       .  S
O709        C719   1.277       .  A
O710       Cu717   1.992   1_554  S
O710        C720   1.276       .  A
O711       Cu717   1.993   1_565  S
O711        C721   1.276       .  A
O712       Cu717   1.996       .  S
O712        C722   1.277       .  A
O713       Cu718   2.020       .  S
O713        C722   1.278       .  A
O714       Cu718   2.019   1_565  S
O714        C721   1.279       .  A
O715       Cu718   2.031   1_554  S
O715        C720   1.280       .  A
O716       Cu718   2.025       .  S
O716        C719   1.279       .  A
Cu717      Cu718   2.372       .  S
C719       C1743   1.478       .  S
C720        C813   1.478       .  S
C721       C1803   1.477       .  S
C722        C833   1.474       .  S
C723        C724   1.407       .  A
C723        C728   1.407       .  A
C723        C790   1.479       .  S
C724        C725   1.401       .  A
C724        H729   1.084       .  S
C725        C726   1.398       .  A
C725        C903   1.480       .  S
C726        C727   1.402       .  A
C726        H730   1.085       .  S
C727        C728   1.403       .  A
C727        C780   1.485       .  S
C728        H731   1.083       .  S
C732        C733   1.408       .  A
C732        C737   1.406       .  A
C732        C793   1.481       .  S
C733        C734   1.405       .  A
C733        H738   1.083       .  S
C734        C735   1.401       .  A
C734       C1110   1.483       .  S
C735        C736   1.396       .  A
C735        H739   1.085       .  S
C736        C737   1.399       .  A
C736        C770   1.472       .  S
C737        H740   1.084       .  S
O741       Cu749   2.015   1_565  S
O741        C751   1.278       .  A
O742       Cu749   2.021       .  S
O742        C752   1.279       .  A
O743       Cu749   2.020       .  S
O743        C753   1.278       .  A
O744       Cu749   2.027       .  S
O744        C754   1.279       .  A
O745       Cu750   1.996       .  S
O745        C754   1.277       .  A
O746       Cu750   2.000       .  S
O746        C753   1.277       .  A
O747       Cu750   1.989       .  S
O747        C752   1.275       .  A
O748       Cu750   1.997   1_565  S
O748        C751   1.276       .  A
Cu749      Cu750   2.375       .  S
C751       C1873   1.465       .  S
C752        C783   1.474       .  S
C753       C1723   1.476       .  S
C754        C803   1.477       .  S
O755       Cu763   1.992       .  S
O755        C765   1.276       .  A
O756       Cu763   1.986       .  S
O756        C766   1.276       .  A
O757       Cu763   1.993       .  S
O757        C767   1.276       .  A
O758       Cu763   1.998       .  S
O758        C768   1.276       .  A
O759       Cu764   2.009       .  S
O759        C768   1.277       .  A
O760       Cu764   2.018       .  S
O760        C767   1.278       .  A
O761       Cu764   2.027       .  S
O761        C766   1.279       .  A
O762       Cu764   2.017       .  S
O762        C765   1.278       .  A
Cu763      Cu764   2.377       .  S
C765       C1840   1.469       .  S
C766        C863   1.476       .  S
C767       C1893   1.472       .  S
C768        C773   1.463       .  S
C769        C770   1.402       .  A
C769        C774   1.396       .  A
C769        H776   1.084       .  S
C770        C771   1.408       .  A
C771        C772   1.399       .  A
C771       Br778   1.917       .  S
C772        C773   1.401       .  A
C772        H777   1.084       .  S
C773        C774   1.406       .  A
C774       Br775   1.919       .  S
C779        C780   1.404       .  A
C779        C784   1.390       .  A
C779        H786   1.083       .  S
C780        C781   1.413       .  A
C781        C782   1.404       .  A
C781       Br788   1.919       .  S
C782        C783   1.405       .  A
C782        H787   1.083       .  S
C783        C784   1.409       .  A
C784       Br785   1.920       .  S
C789        C790   1.402       .  A
C789        C794   1.396       .  A
C789        H796   1.084       .  S
C790        C791   1.410       .  A
C791        C792   1.400       .  A
C791       Br798   1.920       .  S
C792        C793   1.405       .  A
C792        H797   1.084       .  S
C793        C794   1.411       .  A
C794       Br795   1.919       .  S
C799        C800   1.407   1_565  A
C799        C804   1.404       .  A
C799        H806   1.083       .  S
C800        C801   1.411       .  A
C801        C802   1.395       .  A
C801       Br808   1.923       .  S
C802        C803   1.402       .  A
C802        H807   1.081       .  S
C803        C804   1.409   1_545  A
C804       Br805   1.918       .  S
C809        C810   1.407       .  A
C809        C814   1.404       .  A
C809        H816   1.083       .  S
C810        C811   1.412   1_545  A
C811        C812   1.395       .  A
C811       Br818   1.923       .  S
C812        C813   1.402   1_565  A
C812        H817   1.083       .  S
C813        C814   1.410       .  A
C814       Br815   1.918       .  S
C819        C820   1.401   1_565  A
C819        C824   1.398       .  A
C819        H826   1.084       .  S
C820        C821   1.411       .  A
C821        C822   1.400       .  A
C821       Br828   1.920       .  S
C822        C823   1.405       .  A
C822        H827   1.083       .  S
C823        C824   1.412   1_545  A
C824       Br825   1.914       .  S
C829        C830   1.405       .  A
C829        C834   1.403       .  A
C829        H836   1.083       .  S
C830        C831   1.413   1_556  A
C831        C832   1.395       .  A
C831       Br838   1.921       .  S
C832        C833   1.401   1_554  A
C832        H837   1.084       .  S
C833        C834   1.411       .  A
C834       Br835   1.919       .  S
C839        C840   1.403   1_554  A
C839        C844   1.397       .  A
C839        H846   1.084       .  S
C840        C841   1.412       .  A
C841        C842   1.400       .  A
C841       Br848   1.917       .  S
C842        C843   1.403       .  A
C842        H847   1.083       .  S
C843        C844   1.410   1_556  A
C844       Br845   1.921       .  S
C849        C850   1.408   1_554  A
C849        C854   1.408       .  A
C849        H856   1.083       .  S
C850        C851   1.412       .  A
C851        C852   1.387       .  A
C851       Br858   1.920       .  S
C852        C853   1.404       .  A
C852        H857   1.081       .  S
C853        C854   1.417   1_556  A
C854       Br855   1.919       .  S
C859        C860   1.409       .  A
C859        C864   1.404       .  A
C859        H866   1.083       .  S
C860        C861   1.413       .  A
C861        C862   1.392       .  A
C861       Br868   1.919       .  S
C862        C863   1.400       .  A
C862        H867   1.082       .  S
C863        C864   1.409       .  A
C864       Br865   1.918       .  S
C869        C870   1.403       .  A
C869        C874   1.396       .  A
C869        H876   1.084       .  S
C870        C871   1.410       .  A
C871        C872   1.402       .  A
C871       Br878   1.914       .  S
C872        C873   1.406       .  A
C872        H877   1.083       .  S
C873        C874   1.413       .  A
C874       Br875   1.922       .  S
C879        C880   1.403       .  A
C879        C884   1.400       .  A
C879        H886   1.084       .  S
C880        C881   1.409       .  A
C881        C882   1.397       .  A
C881       Br888   1.916       .  S
C882        C883   1.403       .  A
C882        H887   1.084       .  S
C883        C884   1.411       .  A
C884       Br885   1.920       .  S
C889        C890   1.405       .  A
C889        C894   1.396       .  A
C889        H896   1.084       .  S
C890        C891   1.414       .  A
C891        C892   1.401       .  A
C891       Br898   1.915       .  S
C892        C893   1.401       .  A
C892        H897   1.084       .  S
C893        C894   1.409       .  A
C894       Br895   1.922       .  S
C899        C900   1.400       .  A
C899        C904   1.392       .  A
C899        H906   1.082       .  S
C900        C901   1.409       .  A
C901        C902   1.404       .  A
C901       Br908   1.918       .  S
C902        C903   1.405       .  A
C902        H907   1.083       .  S
C903        C904   1.411       .  A
C904       Br905   1.922       .  S
C909        C910   1.399       .  A
C909        C914   1.393       .  A
C909        H916   1.083       .  S
C910        C911   1.408       .  A
C911        C912   1.402       .  A
C911       Br918   1.918       .  S
C912        C913   1.403       .  A
C912        H917   1.083       .  S
C913        C914   1.407       .  A
C914       Br915   1.917       .  S
C919        C920   1.405       .  A
C919        C924   1.404       .  A
C919        H926   1.083       .  S
C920        C921   1.411       .  A
C921        C922   1.393       .  A
C921       Br928   1.922       .  S
C922        C923   1.400       .  A
C922        H927   1.084       .  S
C923        C924   1.411       .  A
C924       Br925   1.919       .  S
C929        C930   1.406       .  A
C929        C934   1.394       .  A
C929        H936   1.083       .  S
C930        C931   1.415       .  A
C931        C932   1.403       .  A
C931       Br938   1.920       .  S
C932        C933   1.404       .  A
C932        H937   1.084       .  S
C933        C934   1.409       .  A
C934       Br935   1.922       .  S
C939        C940   1.404       .  A
C939        C944   1.394       .  A
C939        H946   1.084       .  S
C940        C941   1.414       .  A
C941        C942   1.402       .  A
C941       Br948   1.920       .  S
C942        C943   1.403       .  A
C942        H947   1.084       .  S
C943        C944   1.409       .  A
C944       Br945   1.920       .  S
C949        C950   1.406       .  A
C949        C954   1.395       .  A
C949        H956   1.084       .  S
C950        C951   1.414       .  A
C951        C952   1.401       .  A
C951       Br958   1.915       .  S
C952        C953   1.402       .  A
C952        H957   1.084       .  S
C953        C954   1.409       .  A
C954       Br955   1.922       .  S
C959        C960   1.404       .  A
C959        C964   1.400       .  A
C959        H966   1.084       .  S
C960        C961   1.409       .  A
C961        C962   1.397       .  A
C961       Br968   1.915       .  S
C962        C963   1.403       .  A
C962        H967   1.084       .  S
C963        C964   1.411       .  A
C964       Br965   1.920       .  S
C969        C970   1.404       .  A
C969        C974   1.404       .  A
C969        H976   1.083       .  S
C970        C971   1.405   1_556  A
C971        C972   1.391       .  A
C971       Br978   1.910       .  S
C972        C973   1.403   1_554  A
C972        H977   1.083       .  S
C973        C974   1.412       .  A
C974       Br975   1.916       .  S
C979        C980   1.400   1_565  A
C979        C984   1.399       .  A
C979        H986   1.083       .  S
C980        C981   1.408       .  A
C981        C982   1.398       .  A
C981       Br988   1.920       .  S
C982        C983   1.405       .  A
C982        H987   1.083       .  S
C983        C984   1.412   1_545  A
C984       Br985   1.914       .  S
C989        C990   1.406   1_455  A
C989        C994   1.402       .  A
C989        H996   1.084       .  S
C990        C991   1.411       .  A
C991        C992   1.396       .  A
C991       Br998   1.921       .  S
C992        C993   1.402   1_655  A
C992        H997   1.084       .  S
C993        C994   1.410       .  A
C994       Br995   1.919       .  S
C999       C1000   1.407       .  A
C999       C1004   1.406       .  A
C999       H1006   1.083       .  S
C1000      C1001   1.414   1_455  A
C1001      C1002   1.392       .  A
C1001     Br1008   1.922       .  S
C1002      C1003   1.406   1_655  A
C1002      H1007   1.083       .  S
C1003      C1004   1.416       .  A
C1004     Br1005   1.920       .  S
C1009      C1010   1.406   1_655  A
C1009      C1014   1.401       .  A
C1009      H1016   1.084       .  S
C1010      C1011   1.410       .  A
C1011      C1012   1.395       .  A
C1011     Br1018   1.921       .  S
C1012      C1013   1.401       .  A
C1012      H1017   1.084       .  S
C1013      C1014   1.406   1_455  A
C1014     Br1015   1.918       .  S
C1019      C1020   1.403   1_455  A
C1019      C1024   1.399       .  A
C1019      H1026   1.084       .  S
C1020      C1021   1.410       .  A
C1021      C1022   1.400       .  A
C1021     Br1028   1.920       .  S
C1022      C1023   1.405       .  A
C1022      H1027   1.084       .  S
C1023      C1024   1.411   1_655  A
C1024     Br1025   1.920       .  S
C1029      C1030   1.402   1_565  A
C1029      C1034   1.394       .  A
C1029      H1036   1.084       .  S
C1030      C1031   1.408       .  A
C1031      C1032   1.400       .  A
C1031     Br1038   1.918       .  S
C1032      C1033   1.406       .  A
C1032      H1037   1.084       .  S
C1033      C1034   1.410   1_545  A
C1034     Br1035   1.922       .  S
C1039      C1040   1.406   1_565  A
C1039      C1044   1.401       .  A
C1039      H1046   1.083       .  S
C1040      C1041   1.410       .  A
C1041      C1042   1.394       .  A
C1041     Br1048   1.922       .  S
C1042      C1043   1.402       .  A
C1042      H1047   1.084       .  S
C1043      C1044   1.408   1_545  A
C1044     Br1045   1.918       .  S
C1049      C1050   1.402       .  A
C1049      C1054   1.397       .  A
C1049      H1056   1.084       .  S
C1050      C1051   1.407   1_545  A
C1051      C1052   1.397       .  A
C1051     Br1058   1.920       .  S
C1052      C1053   1.406   1_565  A
C1052      H1057   1.083       .  S
C1053      C1054   1.412       .  A
C1054     Br1055   1.921       .  S
C1059      C1060   1.407       .  A
C1059      C1064   1.403       .  A
C1059      H1066   1.083   1_556  S
C1060      C1061   1.411       .  A
C1061      C1062   1.396       .  A
C1061     Br1068   1.922       .  S
C1062      C1063   1.402       .  A
C1062      H1067   1.084       .  S
C1063      C1064   1.408       .  A
C1064     Br1065   1.918   1_556  S
C1069      C1070   1.402   1_554  A
C1069      C1074   1.396       .  A
C1069      H1076   1.084       .  S
C1070      C1071   1.409       .  A
C1071      C1072   1.402       .  A
C1071     Br1078   1.919       .  S
C1072      C1073   1.405       .  A
C1072      H1077   1.083       .  S
C1073      C1074   1.411   1_556  A
C1074     Br1075   1.921       .  S
C1079      C1080   1.405   1_554  A
C1079      C1084   1.401       .  A
C1079      H1086   1.084       .  S
C1080      C1081   1.412       .  A
C1081      C1082   1.396       .  A
C1081     Br1088   1.922       .  S
C1082      C1083   1.403       .  A
C1082      H1087   1.084       .  S
C1083      C1084   1.411   1_556  A
C1084     Br1085   1.920       .  S
C1089      C1090   1.402       .  A
C1089      C1094   1.398       .  A
C1089      H1096   1.084       .  S
C1090      C1091   1.410   1_556  A
C1091      C1092   1.400       .  A
C1091     Br1098   1.919       .  S
C1092      C1093   1.404   1_554  A
C1092      H1097   1.084       .  S
C1093      C1094   1.410       .  A
C1094     Br1095   1.916       .  S
C1099      C1100   1.407       .  A
C1099      C1104   1.402       .  A
C1099      H1106   1.083       .  S
C1100      C1101   1.409   1_545  A
C1101      C1102   1.393       .  A
C1101     Br1108   1.922       .  S
C1102      C1103   1.401   1_565  A
C1102      H1107   1.079       .  S
C1103      C1104   1.408       .  A
C1104     Br1105   1.918       .  S
C1109      C1110   1.404       .  A
C1109      C1114   1.394       .  A
C1109      H1116   1.084       .  S
C1110      C1111   1.412       .  A
C1111      C1112   1.402       .  A
C1111     Br1118   1.919       .  S
C1112      C1113   1.403       .  A
C1112      H1117   1.083       .  S
C1113      C1114   1.408       .  A
C1114     Br1115   1.921       .  S
C1119      C1120   1.401   1_655  A
C1119      C1124   1.398       .  A
C1119      H1126   1.083       .  S
C1120      C1121   1.407       .  A
C1121      C1122   1.401       .  A
C1121     Br1128   1.918       .  S
C1122      C1123   1.403       .  A
C1122      H1127   1.083       .  S
C1123      C1124   1.407   1_455  A
C1124     Br1125   1.918       .  S
C1129      C1130   1.403       .  A
C1129      C1134   1.401       .  A
C1129      H1136   1.083       .  S
C1130      C1131   1.408       .  A
C1131      C1132   1.396       .  A
C1131     Br1138   1.917       .  S
C1132      C1133   1.400       .  A
C1132      H1137   1.084       .  S
C1133      C1134   1.407       .  A
C1134     Br1135   1.917       .  S
C1139      C1140   1.407       .  A
C1139      C1144   1.403       .  A
C1139      H1146   1.083       .  S
C1140      C1141   1.413       .  A
C1141      C1142   1.394       .  A
C1141     Br1148   1.919       .  S
C1142      C1143   1.401       .  A
C1142      H1147   1.084       .  S
C1143      C1144   1.410       .  A
C1144     Br1145   1.918       .  S
C1149      C1150   1.405       .  A
C1149      C1154   1.403       .  A
C1149      H1156   1.083       .  S
C1150      C1151   1.408       .  A
C1151      C1152   1.393       .  A
C1151     Br1158   1.922       .  S
C1152      C1153   1.406       .  A
C1152      H1157   1.084       .  S
C1153      C1154   1.412       .  A
C1154     Br1155   1.919       .  S
C1159      C1160   1.405       .  A
C1159      C1164   1.391       .  A
C1159      H1166   1.084       .  S
C1160      C1161   1.412       .  A
C1161      C1162   1.403       .  A
C1161     Br1168   1.918       .  S
C1162      C1163   1.405       .  A
C1162      H1167   1.084       .  S
C1163      C1164   1.408       .  A
C1164     Br1165   1.921       .  S
C1169      C1170   1.403       .  A
C1169      C1174   1.397       .  A
C1169      H1176   1.084       .  S
C1170      C1171   1.412       .  A
C1171      C1172   1.400       .  A
C1171     Br1178   1.920       .  S
C1172      C1173   1.404       .  A
C1172      H1177   1.084       .  S
C1173      C1174   1.411       .  A
C1174     Br1175   1.921       .  S
C1179      C1180   1.400       .  A
C1179      C1184   1.393       .  A
C1179      H1186   1.084       .  S
C1180      C1181   1.410   1_556  A
C1181      C1182   1.403       .  A
C1181     Br1188   1.917       .  S
C1182      C1183   1.404   1_554  A
C1182      H1187   1.083       .  S
C1183      C1184   1.411       .  A
C1184     Br1185   1.921       .  S
C1189      C1190   1.403       .  A
C1189      C1194   1.401       .  A
C1189      H1196   1.084       .  S
C1190      C1191   1.413   1_556  A
C1191      C1192   1.396       .  A
C1191     Br1198   1.923       .  S
C1192      C1193   1.408   1_554  A
C1192      H1197   1.083       .  S
C1193      C1194   1.417       .  A
C1194     Br1195   1.915       .  S
C1199      C1200   1.403   1_565  A
C1199      C1204   1.393       .  A
C1199      H1206   1.080       .  S
C1200      C1201   1.411       .  A
C1201      C1202   1.403       .  A
C1201     Br1208   1.916       .  S
C1202      C1203   1.407       .  A
C1202      H1207   1.083       .  S
C1203      C1204   1.412   1_545  A
C1204     Br1205   1.924       .  S
C1209      C1210   1.401       .  A
C1209      C1214   1.395       .  A
C1209      H1216   1.084       .  S
C1210      C1211   1.409   1_545  A
C1211      C1212   1.402       .  A
C1211     Br1218   1.919       .  S
C1212      C1213   1.406   1_565  A
C1212      H1217   1.083       .  S
C1213      C1214   1.411       .  A
C1214     Br1215   1.922       .  S
C1219      C1220   1.402       .  A
C1219      C1224   1.401       .  A
C1219      H1226   1.083       .  S
C1220      C1221   1.406       .  A
C1221      C1222   1.396       .  A
C1221     Br1228   1.913       .  S
C1222      C1223   1.401       .  A
C1222      H1227   1.084       .  S
C1223      C1224   1.408       .  A
C1224     Br1225   1.917       .  S
C1229      C1230   1.404       .  A
C1229      C1234   1.402       .  A
C1229      H1236   1.083       .  S
C1230      C1231   1.411       .  A
C1231      C1232   1.397       .  A
C1231     Br1238   1.921       .  S
C1232      C1233   1.401       .  A
C1232      H1237   1.084       .  S
C1233      C1234   1.410       .  A
C1234     Br1235   1.919       .  S
C1239      C1240   1.404       .  A
C1239      C1244   1.401       .  A
C1239      H1246   1.084       .  S
C1240      C1241   1.410       .  A
C1241      C1242   1.398       .  A
C1241     Br1248   1.920       .  S
C1242      C1243   1.402       .  A
C1242      H1247   1.084       .  S
C1243      C1244   1.407       .  A
C1244     Br1245   1.912       .  S
C1249      C1250   1.404       .  A
C1249      C1254   1.403       .  A
C1249      H1256   1.084       .  S
C1250      C1251   1.411       .  A
C1251      C1252   1.395       .  A
C1251     Br1258   1.921       .  S
C1252      C1253   1.405       .  A
C1252      H1257   1.084       .  S
C1253      C1254   1.414       .  A
C1254     Br1255   1.918       .  S
C1259      C1260   1.403       .  A
C1259      C1264   1.400       .  A
C1259      H1266   1.083       .  S
C1260      C1261   1.409       .  A
C1261      C1262   1.399       .  A
C1261     Br1268   1.918       .  S
C1262      C1263   1.402       .  A
C1262      H1267   1.084       .  S
C1263      C1264   1.410       .  A
C1264     Br1265   1.918       .  S
C1269      C1270   1.404       .  A
C1269      C1274   1.394       .  A
C1269      H1276   1.084       .  S
C1270      C1271   1.414       .  A
C1271      C1272   1.404       .  A
C1271     Br1278   1.920       .  S
C1272      C1273   1.404       .  A
C1272      H1277   1.084       .  S
C1273      C1274   1.410       .  A
C1274     Br1275   1.921       .  S
C1279      C1280   1.405       .  A
C1279      C1284   1.395       .  A
C1279      H1286   1.084       .  S
C1280      C1281   1.414       .  A
C1281      C1282   1.401       .  A
C1281     Br1288   1.915       .  S
C1282      C1283   1.402       .  A
C1282      H1287   1.084       .  S
C1283      C1284   1.409       .  A
C1284     Br1285   1.918       .  S
C1289      C1290   1.406       .  A
C1289      C1294   1.403       .  A
C1289      H1296   1.083       .  S
C1290      C1291   1.412       .  A
C1291      C1292   1.393       .  A
C1291     Br1298   1.922       .  S
C1292      C1293   1.401       .  A
C1292      H1297   1.084       .  S
C1293      C1294   1.410       .  A
C1294     Br1295   1.918       .  S
C1299      C1300   1.405       .  A
C1299      C1304   1.393       .  A
C1299      H1306   1.083       .  S
C1300      C1301   1.412       .  A
C1301      C1302   1.403       .  A
C1301     Br1308   1.919       .  S
C1302      C1303   1.404       .  A
C1302      H1307   1.084       .  S
C1303      C1304   1.407       .  A
C1304     Br1305   1.921       .  S
C1309      C1310   1.402       .  A
C1309      C1314   1.397       .  A
C1309      H1316   1.084       .  S
C1310      C1311   1.410       .  A
C1311      C1312   1.400       .  A
C1311     Br1318   1.919       .  S
C1312      C1313   1.404       .  A
C1312      H1317   1.084       .  S
C1313      C1314   1.409       .  A
C1314     Br1315   1.916       .  S
C1319      C1320   1.401       .  A
C1319      C1324   1.399       .  A
C1319      H1326   1.084       .  S
C1320      C1321   1.407   1_655  A
C1321      C1322   1.400       .  A
C1321     Br1328   1.918       .  S
C1322      C1323   1.402   1_455  A
C1322      H1327   1.084       .  S
C1323      C1324   1.407       .  A
C1324     Br1325   1.914       .  S
C1329      C1330   1.404   1_655  A
C1329      C1334   1.402       .  A
C1329      H1336   1.083       .  S
C1330      C1331   1.408       .  A
C1331      C1332   1.396       .  A
C1331     Br1338   1.919       .  S
C1332      C1333   1.401       .  A
C1332      H1337   1.081       .  S
C1333      C1334   1.408   1_455  A
C1334     Br1335   1.916       .  S
C1339      C1340   1.405   1_455  A
C1339      C1344   1.405       .  A
C1339      H1346   1.083       .  S
C1340      C1341   1.407       .  A
C1341      C1342   1.391       .  A
C1341     Br1348   1.908       .  S
C1342      C1343   1.401   1_655  A
C1342      H1347   1.084       .  S
C1343      C1344   1.413       .  A
C1344     Br1345   1.918       .  S
C1349      C1350   1.401       .  A
C1349      C1354   1.397       .  A
C1349      H1356   1.084       .  S
C1350      C1351   1.408   1_455  A
C1351      C1352   1.402       .  A
C1351     Br1358   1.918       .  S
C1352      C1353   1.405   1_655  A
C1352      H1357   1.083       .  S
C1353      C1354   1.410       .  A
C1354     Br1355   1.921       .  S
C1359      C1360   1.403   1_455  A
C1359      C1364   1.398       .  A
C1359      H1366   1.084       .  S
C1360      C1361   1.410       .  A
C1361      C1362   1.399       .  A
C1361     Br1368   1.920       .  S
C1362      C1363   1.405   1_655  A
C1362      H1367   1.083       .  S
C1363      C1364   1.411       .  A
C1364     Br1365   1.920       .  S
C1369      C1370   1.408       .  A
C1369      C1374   1.403       .  A
C1369      H1376   1.083       .  S
C1370      C1371   1.415   1_556  A
C1371      C1372   1.395       .  A
C1371     Br1378   1.918       .  S
C1372      C1373   1.401   1_554  A
C1372      H1377   1.084       .  S
C1373      C1374   1.411       .  A
C1374     Br1375   1.916       .  S
C1379      C1380   1.402       .  A
C1379      C1384   1.395       .  A
C1379      H1386   1.084       .  S
C1380      C1381   1.409   1_556  A
C1381      C1382   1.403       .  A
C1381     Br1388   1.918       .  S
C1382      C1383   1.407   1_554  A
C1382      H1387   1.083       .  S
C1383      C1384   1.412       .  A
C1384     Br1385   1.922       .  S
C1389      C1390   1.406       .  A
C1389      C1394   1.403       .  A
C1389      H1396   1.083       .  S
C1390      C1391   1.411   1_556  A
C1391      C1392   1.394       .  A
C1391     Br1398   1.922       .  S
C1392      C1393   1.401   1_554  A
C1392      H1397   1.084       .  S
C1393      C1394   1.408       .  A
C1394     Br1395   1.918       .  S
C1399      C1400   1.405       .  A
C1399      C1404   1.400       .  A
C1399      H1406   1.083       .  S
C1400      C1401   1.413   1_556  A
C1401      C1402   1.399       .  A
C1401     Br1408   1.921       .  S
C1402      C1403   1.403   1_554  A
C1402      H1407   1.084       .  S
C1403      C1404   1.410       .  A
C1404     Br1405   1.920       .  S
C1409      C1410   1.400   1_554  A
C1409      C1414   1.396       .  A
C1409      H1416   1.084       .  S
C1410      C1411   1.408       .  A
C1411      C1412   1.402       .  A
C1411     Br1418   1.915       .  S
C1412      C1413   1.403       .  A
C1412      H1417   1.083       .  S
C1413      C1414   1.408   1_556  A
C1414     Br1415   1.917       .  S
C1419      C1420   1.406       .  A
C1419      C1424   1.403       .  A
C1419      H1426   1.083       .  S
C1420      C1421   1.412       .  A
C1421      C1422   1.392       .  A
C1421     Br1428   1.923       .  S
C1422      C1423   1.400       .  A
C1422      H1427   1.081       .  S
C1423      C1424   1.410       .  A
C1424     Br1425   1.918       .  S
C1429      C1430   1.402       .  A
C1429      C1434   1.390       .  A
C1429      H1436   1.083       .  S
C1430      C1431   1.412       .  A
C1431      C1432   1.406       .  A
C1431     Br1438   1.918       .  S
C1432      C1433   1.405       .  A
C1432      H1437   1.083       .  S
C1433      C1434   1.408       .  A
C1434     Br1435   1.917       .  S
C1439      C1440   1.402       .  A
C1439      C1444   1.392       .  A
C1439      H1446   1.084       .  S
C1440      C1441   1.412       .  A
C1441      C1442   1.402       .  A
C1441     Br1448   1.916       .  S
C1442      C1443   1.403       .  A
C1442      H1447   1.083       .  S
C1443      C1444   1.408       .  A
C1444     Br1445   1.915       .  S
C1449      C1450   1.402       .  A
C1449      C1454   1.399       .  A
C1449      H1456   1.084       .  S
C1450      C1451   1.405       .  A
C1451      C1452   1.398       .  A
C1451     Br1458   1.919       .  S
C1452      C1453   1.402       .  A
C1452      H1457   1.083       .  S
C1453      C1454   1.408       .  A
C1454     Br1455   1.919       .  S
C1459      C1460   1.403       .  A
C1459      C1464   1.400       .  A
C1459      H1466   1.084       .  S
C1460      C1461   1.408       .  A
C1461      C1462   1.396       .  A
C1461     Br1468   1.918       .  S
C1462      C1463   1.402       .  A
C1462      H1467   1.084       .  S
C1463      C1464   1.410       .  A
C1464     Br1465   1.919       .  S
C1469      C1470   1.405       .  A
C1469      C1474   1.402       .  A
C1469      H1476   1.083       .  S
C1470      C1471   1.411       .  A
C1471      C1472   1.392       .  A
C1471     Br1478   1.922       .  S
C1472      C1473   1.401       .  A
C1472      H1477   1.084       .  S
C1473      C1474   1.409       .  A
C1474     Br1475   1.915       .  S
C1479      C1480   1.405       .  A
C1479      C1484   1.405       .  A
C1479      H1486   1.083       .  S
C1480      C1481   1.409       .  A
C1481      C1482   1.392       .  A
C1481     Br1488   1.923       .  S
C1482      C1483   1.406       .  A
C1482      H1487   1.083       .  S
C1483      C1484   1.414       .  A
C1484     Br1485   1.919       .  S
C1489      C1490   1.402       .  A
C1489      C1494   1.400       .  A
C1489      H1496   1.083       .  S
C1490      C1491   1.408       .  A
C1491      C1492   1.398       .  A
C1491     Br1498   1.919       .  S
C1492      C1493   1.401       .  A
C1492      H1497   1.084       .  S
C1493      C1494   1.407       .  A
C1494     Br1495   1.918       .  S
C1499      C1500   1.407       .  A
C1499      C1504   1.402       .  A
C1499      H1506   1.083       .  S
C1500      C1501   1.412       .  A
C1501      C1502   1.393       .  A
C1501     Br1508   1.923       .  S
C1502      C1503   1.401       .  A
C1502      H1507   1.083       .  S
C1503      C1504   1.409       .  A
C1504     Br1505   1.919       .  S
C1509      C1510   1.403       .  A
C1509      C1514   1.397       .  A
C1509      H1516   1.084       .  S
C1510      C1511   1.412       .  A
C1511      C1512   1.401       .  A
C1511     Br1518   1.920       .  S
C1512      C1513   1.403       .  A
C1512      H1517   1.083       .  S
C1513      C1514   1.411       .  A
C1514     Br1515   1.921       .  S
C1519      C1520   1.406   1_565  A
C1519      C1524   1.394       .  A
C1519      H1526   1.083       .  S
C1520      C1521   1.414       .  A
C1521      C1522   1.404       .  A
C1521     Br1528   1.919       .  S
C1522      C1523   1.404       .  A
C1522      H1527   1.083       .  S
C1523      C1524   1.408   1_545  A
C1524     Br1525   1.922       .  S
C1529      C1530   1.401   1_565  A
C1529      C1534   1.396       .  A
C1529      H1536   1.084       .  S
C1530      C1531   1.412       .  A
C1531      C1532   1.404       .  A
C1531     Br1538   1.919       .  S
C1532      C1533   1.406       .  A
C1532      H1537   1.083       .  S
C1533      C1534   1.415   1_545  A
C1534     Br1535   1.922       .  S
C1539      C1540   1.405   1_565  A
C1539      C1544   1.393       .  A
C1539      H1546   1.083       .  S
C1540      C1541   1.413       .  A
C1541      C1542   1.404       .  A
C1541     Br1548   1.915       .  S
C1542      C1543   1.403       .  A
C1542      H1547   1.084       .  S
C1543      C1544   1.407   1_545  A
C1544     Br1545   1.922       .  S
C1549      C1550   1.402       .  A
C1549      C1554   1.398       .  A
C1549      H1556   1.084       .  S
C1550      C1551   1.411   1_545  A
C1551      C1552   1.402       .  A
C1551     Br1558   1.919       .  S
C1552      C1553   1.405   1_565  A
C1552      H1557   1.083       .  S
C1553      C1554   1.411       .  A
C1554     Br1555   1.917       .  S
C1559      C1560   1.406       .  A
C1559      C1564   1.397       .  A
C1559      H1566   1.084       .  S
C1560      C1561   1.413   1_655  A
C1561      C1562   1.402       .  A
C1561     Br1568   1.919       .  S
C1562      C1563   1.404   1_455  A
C1562      H1567   1.084       .  S
C1563      C1564   1.409       .  A
C1564     Br1565   1.921       .  S
C1569      C1570   1.403   1_655  A
C1569      C1574   1.400       .  A
C1569      H1576   1.084       .  S
C1570      C1571   1.409       .  A
C1571      C1572   1.398       .  A
C1571     Br1578   1.919       .  S
C1572      C1573   1.403       .  A
C1572      H1577   1.084       .  S
C1573      C1574   1.408   1_455  A
C1574     Br1575   1.911       .  S
C1579      C1580   1.406   1_655  A
C1579      C1584   1.402       .  A
C1579      H1586   1.083       .  S
C1580      C1581   1.412       .  A
C1581      C1582   1.396       .  A
C1581     Br1588   1.922       .  S
C1582      C1583   1.402       .  A
C1582      H1587   1.084       .  S
C1583      C1584   1.409   1_455  A
C1584     Br1585   1.919       .  S
C1589      C1590   1.401   1_455  A
C1589      C1594   1.400       .  A
C1589      H1596   1.084       .  S
C1590      C1591   1.408       .  A
C1591      C1592   1.398       .  A
C1591     Br1598   1.918       .  S
C1592      C1593   1.401       .  A
C1592      H1597   1.084       .  S
C1593      C1594   1.409   1_655  A
C1594     Br1595   1.918       .  S
C1599      C1600   1.402   1_455  A
C1599      C1604   1.399       .  A
C1599      H1606   1.083       .  S
C1600      C1601   1.409       .  A
C1601      C1602   1.400       .  A
C1601     Br1608   1.919       .  S
C1602      C1603   1.402   1_655  A
C1602      H1607   1.083       .  S
C1603      C1604   1.408       .  A
C1604     Br1605   1.918       .  S
C1609      C1610   1.401   1_565  A
C1609      C1614   1.395       .  A
C1609      H1616   1.084       .  S
C1610      C1611   1.410       .  A
C1611      C1612   1.405       .  A
C1611     Br1618   1.918       .  S
C1612      C1613   1.406       .  A
C1612      H1617   1.083       .  S
C1613      C1614   1.412   1_545  A
C1614     Br1615   1.922       .  S
C1619      C1620   1.404       .  A
C1619      C1624   1.402       .  A
C1619      H1626   1.083       .  S
C1620      C1621   1.408       .  A
C1621      C1622   1.398       .  A
C1621     Br1628   1.918       .  S
C1622      C1623   1.401       .  A
C1622      H1627   1.084       .  S
C1623      C1624   1.408       .  A
C1624     Br1625   1.919       .  S
C1629      C1630   1.403       .  A
C1629      C1634   1.401       .  A
C1629      H1636   1.083       .  S
C1630      C1631   1.409       .  A
C1631      C1632   1.398       .  A
C1631     Br1638   1.918       .  S
C1632      C1633   1.400       .  A
C1632      H1637   1.084       .  S
C1633      C1634   1.408       .  A
C1634     Br1635   1.918       .  S
C1639      C1640   1.401       .  A
C1639      C1644   1.396       .  A
C1639      H1646   1.084       .  S
C1640      C1641   1.410       .  A
C1641      C1642   1.403       .  A
C1641     Br1648   1.916       .  S
C1642      C1643   1.403       .  A
C1642      H1647   1.083       .  S
C1643      C1644   1.408       .  A
C1644     Br1645   1.913       .  S
C1649      C1650   1.403       .  A
C1649      C1654   1.402       .  A
C1649      H1656   1.084       .  S
C1650      C1651   1.407       .  A
C1651      C1652   1.398       .  A
C1651     Br1658   1.917       .  S
C1652      C1653   1.402       .  A
C1652      H1657   1.084       .  S
C1653      C1654   1.409       .  A
C1654     Br1655   1.918       .  S
C1659      C1660   1.404       .  A
C1659      C1664   1.400       .  A
C1659      H1666   1.084       .  S
C1660      C1661   1.412       .  A
C1661      C1662   1.400       .  A
C1661     Br1668   1.917       .  S
C1662      C1663   1.404       .  A
C1662      H1667   1.084       .  S
C1663      C1664   1.412       .  A
C1664     Br1665   1.921       .  S
C1669      C1670   1.405       .  A
C1669      C1674   1.397       .  A
C1669      H1676   1.084       .  S
C1670      C1671   1.413   1_455  A
C1671      C1672   1.402       .  A
C1671     Br1678   1.920       .  S
C1672      C1673   1.404   1_655  A
C1672      H1677   1.083       .  S
C1673      C1674   1.409       .  A
C1674     Br1675   1.921       .  S
C1679      C1680   1.403   1_455  A
C1679      C1684   1.403       .  A
C1679      H1686   1.083       .  S
C1680      C1681   1.409       .  A
C1681      C1682   1.395       .  A
C1681     Br1688   1.919       .  S
C1682      C1683   1.404       .  A
C1682      H1687   1.084       .  S
C1683      C1684   1.415   1_655  A
C1684     Br1685   1.919       .  S
C1689      C1690   1.401   1_655  A
C1689      C1694   1.398       .  A
C1689      H1696   1.084       .  S
C1690      C1691   1.407       .  A
C1691      C1692   1.400       .  A
C1691     Br1698   1.917       .  S
C1692      C1693   1.402       .  A
C1692      H1697   1.084       .  S
C1693      C1694   1.407   1_455  A
C1694     Br1695   1.919       .  S
C1699      C1700   1.403       .  A
C1699      C1704   1.395       .  A
C1699      H1706   1.084       .  S
C1700      C1701   1.411   1_655  A
C1701      C1702   1.402       .  A
C1701     Br1708   1.919       .  S
C1702      C1703   1.404   1_455  A
C1702      H1707   1.084       .  S
C1703      C1704   1.409       .  A
C1704     Br1705   1.920       .  S
C1709      C1710   1.402       .  A
C1709      C1714   1.399       .  A
C1709      H1716   1.084       .  S
C1710      C1711   1.409   1_455  A
C1711      C1712   1.399       .  A
C1711     Br1718   1.920       .  S
C1712      C1713   1.404   1_655  A
C1712      H1717   1.084       .  S
C1713      C1714   1.412       .  A
C1714     Br1715   1.920       .  S
C1719      C1720   1.406       .  A
C1719      C1724   1.392       .  A
C1719      H1726   1.082       .  S
C1720      C1721   1.413   1_545  A
C1721      C1722   1.406       .  A
C1721     Br1728   1.918       .  S
C1722      C1723   1.406   1_565  A
C1722      H1727   1.083       .  S
C1723      C1724   1.408       .  A
C1724     Br1725   1.923       .  S
C1729      C1730   1.400       .  A
C1729      C1734   1.391       .  A
C1729      H1736   1.081       .  S
C1730      C1731   1.412   1_545  A
C1731      C1732   1.405       .  A
C1731     Br1738   1.914       .  S
C1732      C1733   1.406   1_565  A
C1732      H1737   1.083       .  S
C1733      C1734   1.411       .  A
C1734     Br1735   1.922       .  S
C1739      C1740   1.409   1_565  A
C1739      C1744   1.405       .  A
C1739      H1746   1.083       .  S
C1740      C1741   1.414       .  A
C1741      C1742   1.395       .  A
C1741     Br1748   1.916       .  S
C1742      C1743   1.400       .  A
C1742      H1747   1.084       .  S
C1743      C1744   1.410   1_545  A
C1744     Br1745   1.918       .  S
C1749      C1750   1.400       .  A
C1749      C1754   1.396       .  A
C1749      H1756   1.084       .  S
C1750      C1751   1.409   1_545  A
C1751      C1752   1.404       .  A
C1751     Br1758   1.917       .  S
C1752      C1753   1.405   1_565  A
C1752      H1757   1.083       .  S
C1753      C1754   1.408       .  A
C1754     Br1755   1.915       .  S
C1759      C1760   1.403       .  A
C1759      C1764   1.401       .  A
C1759      H1766   1.083       .  S
C1760      C1761   1.408   1_545  A
C1761      C1762   1.400       .  A
C1761     Br1768   1.918       .  S
C1762      C1763   1.403   1_565  A
C1762      H1767   1.084       .  S
C1763      C1764   1.408       .  A
C1764     Br1765   1.918       .  S
C1769      C1770   1.406   1_554  A
C1769      C1774   1.402       .  A
C1769      H1776   1.083       .  S
C1770      C1771   1.412       .  A
C1771      C1772   1.396       .  A
C1771     Br1778   1.922       .  S
C1772      C1773   1.403       .  A
C1772      H1777   1.084       .  S
C1773      C1774   1.409   1_556  A
C1774     Br1775   1.913       .  S
C1779      C1780   1.407       .  A
C1779      C1784   1.403       .  A
C1779      H1786   1.083       .  S
C1780      C1781   1.410   1_556  A
C1781      C1782   1.394       .  A
C1781     Br1788   1.923       .  S
C1782      C1783   1.402   1_554  A
C1782      H1787   1.080       .  S
C1783      C1784   1.410       .  A
C1784     Br1785   1.919       .  S
C1789      C1790   1.405       .  A
C1789      C1794   1.388       .  A
C1789      H1796   1.083   1_556  S
C1790      C1791   1.415       .  A
C1791      C1792   1.408       .  A
C1791     Br1798   1.919       .  S
C1792      C1793   1.409       .  A
C1792      H1797   1.083       .  S
C1793      C1794   1.413       .  A
C1794     Br1795   1.921   1_556  S
C1799      C1800   1.405   1_554  A
C1799      C1804   1.392       .  A
C1799      H1806   1.084       .  S
C1800      C1801   1.411       .  A
C1801      C1802   1.404       .  A
C1801     Br1808   1.918       .  S
C1802      C1803   1.406       .  A
C1802      H1807   1.083       .  S
C1803      C1804   1.410   1_556  A
C1804     Br1805   1.923       .  S
C1809      C1810   1.405       .  A
C1809      C1814   1.395       .  A
C1809      H1816   1.084       .  S
C1810      C1811   1.412   1_556  A
C1811      C1812   1.401       .  A
C1811     Br1818   1.920       .  S
C1812      C1813   1.405   1_554  A
C1812      H1817   1.083       .  S
C1813      C1814   1.409       .  A
C1814     Br1815   1.921       .  S
C1819      C1820   1.403       .  A
C1819      C1824   1.392       .  A
C1819      H1826   1.084       .  S
C1820      C1821   1.415       .  A
C1821      C1822   1.405       .  A
C1821     Br1828   1.916       .  S
C1822      C1823   1.404       .  A
C1822      H1827   1.084       .  S
C1823      C1824   1.409       .  A
C1824     Br1825   1.909       .  S
C1829      C1830   1.403       .  A
C1829      C1834   1.394       .  A
C1829      H1836   1.084       .  S
C1830      C1831   1.416       .  A
C1831      C1832   1.404       .  A
C1831     Br1838   1.920       .  S
C1832      C1833   1.403       .  A
C1832      H1837   1.084       .  S
C1833      C1834   1.411       .  A
C1834     Br1835   1.919       .  S
C1839      C1840   1.403       .  A
C1839      C1844   1.402       .  A
C1839      H1846   1.084       .  S
C1840      C1841   1.407       .  A
C1841      C1842   1.393       .  A
C1841     Br1848   1.922       .  S
C1842      C1843   1.404       .  A
C1842      H1847   1.083       .  S
C1843      C1844   1.411       .  A
C1844     Br1845   1.915       .  S
C1849      C1850   1.406       .  A
C1849      C1854   1.403       .  A
C1849      H1856   1.083       .  S
C1850      C1851   1.413       .  A
C1851      C1852   1.392       .  A
C1851     Br1858   1.923       .  S
C1852      C1853   1.401       .  A
C1852      H1857   1.082       .  S
C1853      C1854   1.412       .  A
C1854     Br1855   1.916       .  S
C1859      C1860   1.405       .  A
C1859      C1864   1.398       .  A
C1859      H1866   1.084       .  S
C1860      C1861   1.411       .  A
C1861      C1862   1.397       .  A
C1861     Br1868   1.917       .  S
C1862      C1863   1.402       .  A
C1862      H1867   1.084       .  S
C1863      C1864   1.408       .  A
C1864     Br1865   1.917       .  S
C1869      C1870   1.402       .  A
C1869      C1874   1.400       .  A
C1869      H1876   1.083       .  S
C1870      C1871   1.408       .  A
C1871      C1872   1.397       .  A
C1871     Br1878   1.919       .  S
C1872      C1873   1.401       .  A
C1872      H1877   1.084       .  S
C1873      C1874   1.407       .  A
C1874     Br1875   1.918       .  S
C1879      C1880   1.404       .  A
C1879      C1884   1.404       .  A
C1879      H1886   1.083       .  S
C1880      C1881   1.408       .  A
C1881      C1882   1.393       .  A
C1881     Br1888   1.917       .  S
C1882      C1883   1.404       .  A
C1882      H1887   1.084       .  S
C1883      C1884   1.414       .  A
C1884     Br1885   1.919       .  S
C1889      C1890   1.404       .  A
C1889      C1894   1.391       .  A
C1889      H1896   1.084       .  S
C1890      C1891   1.410       .  A
C1891      C1892   1.404       .  A
C1891     Br1898   1.918       .  S
C1892      C1893   1.405       .  A
C1892      H1897   1.084       .  S
C1893      C1894   1.408       .  A
C1894     Br1895   1.919       .  S
C1899      C1900   1.406       .  A
C1899      C1904   1.391       .  A
C1899      H1906   1.084       .  S
C1900      C1901   1.414       .  A
C1901      C1902   1.405       .  A
C1901     Br1908   1.919       .  S
C1902      C1903   1.406       .  A
C1902      H1907   1.083       .  S
C1903      C1904   1.412       .  A
C1904     Br1905   1.925       .  S
C1909      C1910   1.403       .  A
C1909      C1914   1.396       .  A
C1909      H1916   1.084       .  S
C1910      C1911   1.411       .  A
C1911      C1912   1.400       .  A
C1911     Br1918   1.920       .  S
C1912      C1913   1.405       .  A
C1912      H1917   1.083       .  S
C1913      C1914   1.411       .  A
C1914     Br1915   1.921       .  S
C1919      C1920   1.406       .  A
C1919      C1924   1.395       .  A
C1919      H1926   1.084       .  S
C1920      C1921   1.411       .  A
C1921      C1922   1.400       .  A
C1921     Br1928   1.916       .  S
C1922      C1923   1.401       .  A
C1922      H1927   1.082       .  S
C1923      C1924   1.406       .  A
C1924     Br1925   1.921       .  S
C1929      C1930   1.399       .  A
C1929      C1934   1.393       .  A
C1929      H1936   1.080       .  S
C1930      C1931   1.408       .  A
C1931      C1932   1.403       .  A
C1931     Br1938   1.918       .  S
C1932      C1933   1.406       .  A
C1932      H1937   1.083       .  S
C1933      C1934   1.411       .  A
C1934     Br1935   1.922       .  S
C1939      C1940   1.403       .  A
C1939      C1944   1.401       .  A
C1939      H1946   1.083       .  S
C1940      C1941   1.407       .  A
C1941      C1942   1.395       .  A
C1941     Br1948   1.918       .  S
C1942      C1943   1.399       .  A
C1942      H1947   1.082       .  S
C1943      C1944   1.406       .  A
C1944     Br1945   1.917       .  S
C1949      C1950   1.407       .  A
C1949      C1954   1.402       .  A
C1949      H1956   1.083       .  S
C1950      C1951   1.414       .  A
C1951      C1952   1.396       .  A
C1951     Br1958   1.920       .  S
C1952      C1953   1.402       .  A
C1952      H1957   1.084       .  S
C1953      C1954   1.410       .  A
C1954     Br1955   1.914       .  S
C1959      C1960   1.403       .  A
C1959      C1964   1.398       .  A
C1959      H1966   1.084       .  S
C1960      C1961   1.411       .  A
C1961      C1962   1.399       .  A
C1961     Br1968   1.920       .  S
C1962      C1963   1.403       .  A
C1962      H1967   1.084       .  S
C1963      C1964   1.410       .  A
C1964     Br1965   1.917       .  S
