geometry optimzed in LAMMPS
_audit_creation_date              2020-12-01 
_audit_creation_method            'lammps2cif' 
_symmetry_space_group_name_H-M    'P1' 
_symmetry_Int_Tables_number       1 
_symmetry_cell_setting            triclinic 
loop_ 
_symmetry_equiv_pos_as_xyz 
  x,y,z 
_cell_length_a                    35.70193234 
_cell_length_b                    35.7023606733104 
_cell_length_c                    31.23802894064244 
_cell_angle_alpha                 89.99995507940619 
_cell_angle_beta                  90.00035535162426 
_cell_angle_gamma                 82.27101937483388 
loop_ 
_atom_site_label 
_atom_site_type_symbol 
_atom_site_fract_x 
_atom_site_fract_y 
_atom_site_fract_z 
_atom_site_charge 
N1          N  0.06378359  0.49349302  0.41978691    -0.05000
N2          N  0.08643769  0.00427876  0.39011797    -0.57200
N3          N  0.02629372  0.41648139  0.44966500    -0.04700
N4          N  0.02938913  0.38000776  0.44095760    -0.59300
N5          N  0.00649829  0.43623082  0.41979142    -0.04300
N6          N  0.49570573  0.41357928  0.39012323    -0.57100
N7          N  0.08352957  0.47369467  0.44966088    -0.04000
N8          N  0.12000412  0.47058999  0.44095218    -0.59600
C9          C  0.12127306  0.99004358  0.40404385     0.97100
C10         C  0.50993283  0.37874229  0.40405015     0.96900
N11         N  0.00650957  0.43622665  0.08022617    -0.05200
N12         N  0.49572599  0.41357381  0.10989776    -0.57700
N13         N  0.08353701  0.47369234  0.05034722    -0.03300
N14         N  0.12001259  0.47058647  0.05905257    -0.59000
N15         N  0.06379422  0.49348933  0.08022430    -0.05300
N16         N  0.08645114  0.00427321  0.10989142    -0.58000
N17         N  0.02630120  0.41647916  0.05034858    -0.03000
N18         N  0.02940280  0.38000526  0.05905681    -0.59100
Mn19       Mn  0.05574368  0.44425875  0.00000520     1.18400
C20         C  0.50995435  0.37873772  0.09596890     0.99200
C21         C  0.12128529  0.99003834  0.09596205     0.99900
N22         N  0.43948788  0.00326284  0.41982514    -0.05300
N23         N  0.41692641  0.49180773  0.39049263    -0.61600
N24         N  0.47690902  0.08038524  0.44956739    -0.04100
N25         N  0.47442730  0.11687548  0.44106749    -0.62300
N26         N  0.49677171  0.06052293  0.41982160    -0.04800
N27         N  0.00823269  0.08307840  0.39048638    -0.61900
N28         N  0.41963224  0.02313403  0.44956990    -0.03700
N29         N  0.38314028  0.02562727  0.44107119    -0.62500
Mn30       Mn  0.00162399  0.49838854  0.41849100     1.10700
C31         C  0.38201828  0.50573004  0.40442661     1.00400
C32         C  0.99432286  0.11798956  0.40442094     1.00500
N33         N  0.49678328  0.06051893  0.08020000    -0.03900
N34         N  0.00825321  0.08307282  0.10953111    -0.60200
N35         N  0.41963996  0.02313210  0.05046117    -0.04100
N36         N  0.38314877  0.02562528  0.05896366    -0.56900
N37         N  0.43949836  0.00325969  0.08020282    -0.05400
N38         N  0.41693975  0.49180371  0.10953764    -0.59700
N39         N  0.47691700  0.08038287  0.05045782    -0.04400
N40         N  0.47444162  0.11687306  0.05895663    -0.56900
Mn41       Mn  0.50163497  0.99838476  0.08152859     1.20200
Mn42       Mn  0.44736703  0.05266624  0.50001423     1.10100
Cl43       Cl  0.00156962  0.99844722  0.00000979    -0.84900
C44         C  0.99434509  0.11798504  0.09559826     0.97400
C45         C  0.38203034  0.50572692  0.09560759     0.97200
C46         C  0.00453108  0.28081249  0.16125094     0.81300
N47         N  0.00333368  0.24813896  0.13944763    -0.77000
C48         C  0.00250049  0.21530296  0.16105763     0.83700
N49         N  0.00278965  0.21515739  0.20451016    -0.77000
C50         C  0.00401827  0.24783638  0.22647983     0.83800
N51         N  0.00488636  0.28065002  0.20467726    -0.78700
C52         C  0.00450061  0.28081845  0.33876805     0.81300
N53         N  0.00487062  0.28065322  0.29534173    -0.77000
C54         C  0.00400958  0.24783836  0.27353950     0.83700
N55         N  0.00277376  0.21516060  0.29550934    -0.77000
C56         C  0.00246994  0.21530897  0.33896155     0.83800
N57         N  0.00329634  0.24814612  0.36057137    -0.78700
C58         C  0.21920458  0.49550172  0.16124729     0.81300
N59         N  0.25187662  0.49671994  0.13944757    -0.77000
C60         C  0.28470809  0.49757276  0.16106072     0.83700
N61         N  0.28485148  0.49728140  0.20451326    -0.77000
C62         C  0.25217419  0.49603194  0.22647980     0.83800
N63         N  0.21936467  0.49514463  0.20467410    -0.78700
C64         C  0.21919497  0.49550575  0.33876698     0.81300
N65         N  0.25186443  0.49672395  0.36057230    -0.77000
C66         C  0.28469868  0.49757532  0.33896432     0.83700
N67         N  0.28484695  0.49728229  0.29551199    -0.77000
C68         C  0.25217194  0.49603278  0.27353999     0.83800
N69         N  0.21935989  0.49514689  0.29534057    -0.78700
C70         C  0.99821963  0.15213328  0.38156363    -0.12200
C71         C  0.00058994  0.18087377  0.36208820    -0.13800
C72         C  0.00549102  0.31552606  0.36163966    -0.12200
C73         C  0.00694649  0.34452195  0.38095555    -0.13800
C74         C  0.00062239  0.18086745  0.13793061    -0.12200
C75         C  0.99824897  0.15212773  0.11845456    -0.13800
C76         C  0.00552304  0.31551968  0.13837967    -0.12200
C77         C  0.00697521  0.34451653  0.11906438    -0.13800
C78         C  0.34787085  0.50183919  0.38157149    -0.12200
C79         C  0.31913149  0.49946612  0.36209414    -0.13800
C80         C  0.15549513  0.49302898  0.38095192    -0.12200
C81         C  0.18448996  0.49449387  0.36163706    -0.13800
C82         C  0.31914341  0.49946246  0.13793738    -0.12200
C83         C  0.34788457  0.50183487  0.11846369    -0.13800
C84         C  0.18450236  0.49448760  0.13837120    -0.12200
C85         C  0.15550901  0.49302198  0.11905277    -0.13800
N86         N  0.06378348  0.49349297  0.91978683    -0.05000
N87         N  0.08643756  0.00427889  0.89011801    -0.57200
N88         N  0.02629360  0.41648163  0.94966513    -0.04700
N89         N  0.02938902  0.38000764  0.94095750    -0.59300
N90         N  0.00649816  0.43623070  0.91979126    -0.04300
N91         N  0.49570588  0.41357944  0.89012334    -0.57100
N92         N  0.08352952  0.47369465  0.94966074    -0.04000
N93         N  0.12000398  0.47058985  0.94095216    -0.59600
C94         C  0.12127296  0.99004367  0.90404359     0.97100
C95         C  0.50993282  0.37874225  0.90405031     0.96900
N96         N  0.00650966  0.43622663  0.58022605    -0.05200
N97         N  0.49572605  0.41357379  0.60989787    -0.57700
N98         N  0.08353714  0.47369229  0.55034749    -0.03300
N99         N  0.12001250  0.47058652  0.55905260    -0.59000
N100        N  0.06379417  0.49348929  0.58022419    -0.05300
N101        N  0.08645104  0.00427319  0.60989157    -0.58000
N102        N  0.02630124  0.41647912  0.55034862    -0.03000
N103        N  0.02940291  0.38000521  0.55905698    -0.59100
Mn104      Mn  0.05574382  0.44425877  0.50000527     1.18400
C105        C  0.50995441  0.37873771  0.59596903     0.99200
C106        C  0.12128525  0.99003840  0.59596214     0.99900
N107        N  0.43948786  0.00326299  0.91982535    -0.05300
N108        N  0.41692636  0.49180779  0.89049252    -0.61600
N109        N  0.47690912  0.08038532  0.94956736    -0.04100
N110        N  0.47442731  0.11687552  0.94106759    -0.62300
N111        N  0.49677168  0.06052289  0.91982155    -0.04800
N112        N  0.00823251  0.08307852  0.89048633    -0.61900
N113        N  0.41963235  0.02313394  0.94956984    -0.03700
N114        N  0.38314023  0.02562734  0.94107114    -0.62500
Mn115      Mn  0.00162394  0.49838854  0.91849093     1.10700
C116        C  0.38201830  0.50573011  0.90442653     1.00400
C117        C  0.99432297  0.11798958  0.90442092     1.00500
N118        N  0.49678335  0.06051874  0.58019981    -0.03900
N119        N  0.00825326  0.08307292  0.60953109    -0.60200
N120        N  0.41963970  0.02313207  0.55046116    -0.04100
N121        N  0.38314884  0.02562538  0.55896355    -0.56900
N122        N  0.43949854  0.00325982  0.58020281    -0.05400
N123        N  0.41693955  0.49180361  0.60953767    -0.59700
N124        N  0.47691696  0.08038299  0.55045792    -0.04400
N125        N  0.47444164  0.11687296  0.55895643    -0.56900
Mn126      Mn  0.50163492  0.99838466  0.58152860     1.20200
Mn127      Mn  0.44736710  0.05266627  0.00001429     1.10100
Cl128      Cl  0.00156963  0.99844721  0.50000979    -0.84900
C129        C  0.99434511  0.11798496  0.59559837     0.97400
C130        C  0.38203047  0.50572693  0.59560760     0.97200
C131        C  0.00453097  0.28081250  0.66125093     0.81300
N132        N  0.00333358  0.24813891  0.63944762    -0.77000
C133        C  0.00250040  0.21530304  0.66105769     0.83700
N134        N  0.00278968  0.21515731  0.70451013    -0.77000
C135        C  0.00401822  0.24783668  0.72647983     0.83800
N136        N  0.00488632  0.28064990  0.70467725    -0.78700
C137        C  0.00450068  0.28081838  0.83876790     0.81300
N138        N  0.00487058  0.28065340  0.79534174    -0.77000
C139        C  0.00400966  0.24783809  0.77353951     0.83700
N140        N  0.00277371  0.21516080  0.79550932    -0.77000
C141        C  0.00246988  0.21530902  0.83896167     0.83800
N142        N  0.00329625  0.24814613  0.86057136    -0.78700
C143        C  0.21920475  0.49550176  0.66124742     0.81300
N144        N  0.25187647  0.49671988  0.63944757    -0.77000
C145        C  0.28470845  0.49757285  0.66106099     0.83700
N146        N  0.28485135  0.49728130  0.70451310    -0.77000
C147        C  0.25217451  0.49603197  0.72648002     0.83800
N148        N  0.21936447  0.49514465  0.70467412    -0.78700
C149        C  0.21919492  0.49550570  0.83876716     0.81300
N150        N  0.25186444  0.49672404  0.86057228    -0.77000
C151        C  0.28469873  0.49757544  0.83896453     0.83700
N152        N  0.28484705  0.49728236  0.79551198    -0.77000
C153        C  0.25217173  0.49603274  0.77354002     0.83800
N154        N  0.21936004  0.49514688  0.79534052    -0.78700
C155        C  0.99821952  0.15213332  0.88156360    -0.12200
C156        C  0.00058992  0.18087377  0.86208820    -0.13800
C157        C  0.00549095  0.31552602  0.86163960    -0.12200
C158        C  0.00694642  0.34452180  0.88095550    -0.13800
C159        C  0.00062237  0.18086738  0.63793067    -0.12200
C160        C  0.99824896  0.15212772  0.61845473    -0.13800
C161        C  0.00552294  0.31551962  0.63837955    -0.12200
C162        C  0.00697520  0.34451638  0.61906428    -0.13800
C163        C  0.34787096  0.50183933  0.88157163    -0.12200
C164        C  0.31913136  0.49946623  0.86209406    -0.13800
C165        C  0.15549501  0.49302900  0.88095185    -0.12200
C166        C  0.18449005  0.49449388  0.86163694    -0.13800
C167        C  0.31914357  0.49946234  0.63793732    -0.12200
C168        C  0.34788475  0.50183494  0.61846366    -0.13800
C169        C  0.18450250  0.49448775  0.63837127    -0.12200
C170        C  0.15550895  0.49302191  0.61905279    -0.13800
N171        N  0.06378349  0.99349300  0.41978708    -0.05000
N172        N  0.08643758  0.50427880  0.39011803    -0.57200
N173        N  0.02629371  0.91648156  0.44966505    -0.04700
N174        N  0.02938914  0.88000762  0.44095753    -0.59300
N175        N  0.00649830  0.93623058  0.41979137    -0.04300
N176        N  0.49570572  0.91357943  0.39012330    -0.57100
N177        N  0.08352966  0.97369456  0.44966080    -0.04000
N178        N  0.12000403  0.97058987  0.44095220    -0.59600
C179        C  0.12127305  0.49004358  0.40404378     0.97100
C180        C  0.50993289  0.87874214  0.40405025     0.96900
N181        N  0.00650965  0.93622666  0.08022612    -0.05200
N182        N  0.49572602  0.91357386  0.10989776    -0.57700
N183        N  0.08353711  0.97369227  0.05034726    -0.03300
N184        N  0.12001259  0.97058651  0.05905255    -0.59000
N185        N  0.06379423  0.99348939  0.08022428    -0.05300
N186        N  0.08645115  0.50427326  0.10989138    -0.58000
N187        N  0.02630122  0.91647920  0.05034861    -0.03000
N188        N  0.02940283  0.88000527  0.05905681    -0.59100
Mn189      Mn  0.05574370  0.94425875  0.00000517     1.18400
C190        C  0.50995439  0.87873766  0.09596893     0.99200
C191        C  0.12128521  0.49003833  0.09596201     0.99900
N192        N  0.43948785  0.50326288  0.41982514    -0.05300
N193        N  0.41692637  0.99180776  0.39049261    -0.61600
N194        N  0.47690903  0.58038521  0.44956743    -0.04100
N195        N  0.47442731  0.61687557  0.44106748    -0.62300
N196        N  0.49677161  0.56052298  0.41982154    -0.04800
N197        N  0.00823265  0.58307846  0.39048634    -0.61900
N198        N  0.41963226  0.52313406  0.44956995    -0.03700
N199        N  0.38314024  0.52562727  0.44107110    -0.62500
Mn200      Mn  0.00162402  0.99838856  0.41849099     1.10700
C201        C  0.38201830  0.00573010  0.40442649     1.00400
C202        C  0.99432280  0.61798961  0.40442094     1.00500
N203        N  0.49678323  0.56051888  0.08019994    -0.03900
N204        N  0.00825320  0.58307287  0.10953115    -0.60200
N205        N  0.41963993  0.52313215  0.05046113    -0.04100
N206        N  0.38314876  0.52562533  0.05896365    -0.56900
N207        N  0.43949838  0.50325968  0.08020292    -0.05400
N208        N  0.41693981  0.99180370  0.10953770    -0.59700
N209        N  0.47691702  0.58038280  0.05045789    -0.04400
N210        N  0.47444163  0.61687308  0.05895655    -0.56900
Mn211      Mn  0.50163497  0.49838469  0.08152859     1.20200
Mn212      Mn  0.44736702  0.55266626  0.50001424     1.10100
Cl213      Cl  0.00156962  0.49844720  0.00000978    -0.84900
C214        C  0.99434507  0.61798505  0.09559824     0.97400
C215        C  0.38203031  0.00572693  0.09560757     0.97200
C216        C  0.00453093  0.78081259  0.16125095     0.81300
N217        N  0.00333365  0.74813893  0.13944757    -0.77000
C218        C  0.00250048  0.71530303  0.16105763     0.83700
N219        N  0.00278961  0.71515738  0.20451010    -0.77000
C220        C  0.00401829  0.74783649  0.22647985     0.83800
N221        N  0.00488642  0.78064992  0.20467721    -0.78700
C222        C  0.00450063  0.78081842  0.33876804     0.81300
N223        N  0.00487069  0.78065330  0.29534173    -0.77000
C224        C  0.00400958  0.74783823  0.27353945     0.83700
N225        N  0.00277373  0.71516072  0.29550933    -0.77000
C226        C  0.00246990  0.71530887  0.33896155     0.83800
N227        N  0.00329630  0.74814619  0.36057136    -0.78700
C228        C  0.21920449  0.99550172  0.16124728     0.81300
N229        N  0.25187671  0.99671998  0.13944758    -0.77000
C230        C  0.28470803  0.99757277  0.16106075     0.83700
N231        N  0.28485158  0.99728129  0.20451325    -0.77000
C232        C  0.25217401  0.99603194  0.22647984     0.83800
N233        N  0.21936477  0.99514460  0.20467412    -0.78700
C234        C  0.21919501  0.99550564  0.33876699     0.81300
N235        N  0.25186440  0.99672396  0.36057231    -0.77000
C236        C  0.28469873  0.99757535  0.33896433     0.83700
N237        N  0.28484686  0.99728226  0.29551199    -0.77000
C238        C  0.25217204  0.99603265  0.27353998     0.83800
N239        N  0.21935981  0.99514680  0.29534057    -0.78700
C240        C  0.99821951  0.65213330  0.38156367    -0.12200
C241        C  0.00058983  0.68087382  0.36208817    -0.13800
C242        C  0.00549104  0.81552596  0.36163955    -0.12200
C243        C  0.00694655  0.84452198  0.38095562    -0.13800
C244        C  0.00062225  0.68086749  0.13793065    -0.12200
C245        C  0.99824902  0.65212779  0.11845461    -0.13800
C246        C  0.00552305  0.81551958  0.13837976    -0.12200
C247        C  0.00697523  0.84451654  0.11906429    -0.13800
C248        C  0.34787091  0.00183921  0.38157151    -0.12200
C249        C  0.31913146  0.99946620  0.36209410    -0.13800
C250        C  0.15549516  0.99302895  0.38095187    -0.12200
C251        C  0.18448996  0.99449385  0.36163707    -0.13800
C252        C  0.31914339  0.99946248  0.13793741    -0.12200
C253        C  0.34788462  0.00183483  0.11846366    -0.13800
C254        C  0.18450244  0.99448771  0.13837121    -0.12200
C255        C  0.15550901  0.99302189  0.11905272    -0.13800
N256        N  0.06378345  0.99349300  0.91978682    -0.05000
N257        N  0.08643757  0.50427878  0.89011799    -0.57200
N258        N  0.02629361  0.91648163  0.94966510    -0.04700
N259        N  0.02938905  0.88000765  0.94095747    -0.59300
N260        N  0.00649816  0.93623071  0.91979124    -0.04300
N261        N  0.49570579  0.91357945  0.89012338    -0.57100
N262        N  0.08352952  0.97369471  0.94966074    -0.04000
N263        N  0.12000397  0.97058995  0.94095217    -0.59600
C264        C  0.12127300  0.49004357  0.90404362     0.97100
C265        C  0.50993284  0.87874228  0.90405025     0.96900
N266        N  0.00650955  0.93622675  0.58022595    -0.05200
N267        N  0.49572604  0.91357369  0.60989796    -0.57700
N268        N  0.08353706  0.97369232  0.55034736    -0.03300
N269        N  0.12001254  0.97058654  0.55905268    -0.59000
N270        N  0.06379419  0.99348929  0.58022436    -0.05300
N271        N  0.08645114  0.50427319  0.60989163    -0.58000
N272        N  0.02630125  0.91647895  0.55034872    -0.03000
N273        N  0.02940293  0.88000531  0.55905693    -0.59100
Mn274      Mn  0.05574381  0.94425869  0.50000534     1.18400
C275        C  0.50995440  0.87873781  0.59596905     0.99200
C276        C  0.12128533  0.49003839  0.59596219     0.99900
N277        N  0.43948783  0.50326299  0.91982535    -0.05300
N278        N  0.41692639  0.99180781  0.89049247    -0.61600
N279        N  0.47690909  0.58038522  0.94956747    -0.04100
N280        N  0.47442722  0.61687553  0.94106750    -0.62300
N281        N  0.49677169  0.56052295  0.91982152    -0.04800
N282        N  0.00823253  0.58307846  0.89048641    -0.61900
N283        N  0.41963236  0.52313394  0.94956984    -0.03700
N284        N  0.38314018  0.52562729  0.94107123    -0.62500
Mn285      Mn  0.00162397  0.99838861  0.91849094     1.10700
C286        C  0.38201829  0.00573004  0.90442660     1.00400
C287        C  0.99432289  0.61798959  0.90442083     1.00500
N288        N  0.49678336  0.56051876  0.58019983    -0.03900
N289        N  0.00825329  0.58307289  0.60953108    -0.60200
N290        N  0.41963976  0.52313204  0.55046118    -0.04100
N291        N  0.38314879  0.52562543  0.55896356    -0.56900
N292        N  0.43949849  0.50325983  0.58020278    -0.05400
N293        N  0.41693955  0.99180367  0.60953768    -0.59700
N294        N  0.47691695  0.58038300  0.55045786    -0.04400
N295        N  0.47444156  0.61687294  0.55895650    -0.56900
Mn296      Mn  0.50163488  0.49838471  0.58152858     1.20200
Mn297      Mn  0.44736708  0.55266628  0.00001430     1.10100
Cl298      Cl  0.00156966  0.49844721  0.50000979    -0.84900
C299        C  0.99434515  0.61798492  0.59559835     0.97400
C300        C  0.38203048  0.00572688  0.59560757     0.97200
C301        C  0.00453098  0.78081237  0.66125089     0.81300
N302        N  0.00333359  0.74813901  0.63944765    -0.77000
C303        C  0.00250043  0.71530291  0.66105774     0.83700
N304        N  0.00278960  0.71515737  0.70451016    -0.77000
C305        C  0.00401825  0.74783642  0.72647982     0.83800
N306        N  0.00488633  0.78065000  0.70467727    -0.78700
C307        C  0.00450055  0.78081855  0.83876792     0.81300
N308        N  0.00487058  0.78065320  0.79534172    -0.77000
C309        C  0.00400968  0.74783831  0.77353951     0.83700
N310        N  0.00277370  0.71516063  0.79550937    -0.77000
C311        C  0.00246989  0.71530916  0.83896164     0.83800
N312        N  0.00329629  0.74814607  0.86057139    -0.78700
C313        C  0.21920478  0.99550182  0.66124742     0.81300
N314        N  0.25187643  0.99671990  0.63944758    -0.77000
C315        C  0.28470838  0.99757271  0.66106099     0.83700
N316        N  0.28485135  0.99728134  0.70451313    -0.77000
C317        C  0.25217452  0.99603205  0.72647997     0.83800
N318        N  0.21936446  0.99514460  0.70467411    -0.78700
C319        C  0.21919492  0.99550573  0.83876715     0.81300
N320        N  0.25186447  0.99672393  0.86057227    -0.77000
C321        C  0.28469876  0.99757529  0.83896453     0.83700
N322        N  0.28484708  0.99728231  0.79551197    -0.77000
C323        C  0.25217172  0.99603272  0.77354004     0.83800
N324        N  0.21936005  0.99514690  0.79534050    -0.78700
C325        C  0.99821954  0.65213337  0.88156357    -0.12200
C326        C  0.00058991  0.68087381  0.86208817    -0.13800
C327        C  0.00549097  0.81552602  0.86163959    -0.12200
C328        C  0.00694641  0.84452189  0.88095555    -0.13800
C329        C  0.00062235  0.68086736  0.63793068    -0.12200
C330        C  0.99824897  0.65212771  0.61845471    -0.13800
C331        C  0.00552301  0.81551972  0.63837951    -0.12200
C332        C  0.00697522  0.84451640  0.61906435    -0.13800
C333        C  0.34787098  0.00183927  0.88157163    -0.12200
C334        C  0.31913140  0.99946611  0.86209406    -0.13800
C335        C  0.15549501  0.99302908  0.88095185    -0.12200
C336        C  0.18449004  0.99449392  0.86163694    -0.13800
C337        C  0.31914351  0.99946240  0.63793724    -0.12200
C338        C  0.34788464  0.00183488  0.61846369    -0.13800
C339        C  0.18450238  0.99448777  0.63837117    -0.12200
C340        C  0.15550895  0.99302195  0.61905289    -0.13800
N341        N  0.56378355  0.49349299  0.41978696    -0.05000
N342        N  0.58643757  0.00427878  0.39011796    -0.57200
N343        N  0.52629367  0.41648144  0.44966491    -0.04700
N344        N  0.52938901  0.38000775  0.44095767    -0.59300
N345        N  0.50649825  0.43623083  0.41979138    -0.04300
N346        N  0.99570587  0.41357931  0.39012321    -0.57100
N347        N  0.58352945  0.47369472  0.44966081    -0.04000
N348        N  0.62000409  0.47058999  0.44095221    -0.59600
C349        C  0.62127312  0.99004357  0.40404383     0.97100
C350        C  0.00993286  0.37874224  0.40405028     0.96900
N351        N  0.50650963  0.43622663  0.08022618    -0.05200
N352        N  0.99572602  0.41357379  0.10989779    -0.57700
N353        N  0.58353710  0.47369238  0.05034731    -0.03300
N354        N  0.62001257  0.47058648  0.05905249    -0.59000
N355        N  0.56379418  0.49348929  0.08022417    -0.05300
N356        N  0.58645127  0.00427324  0.10989150    -0.58000
N357        N  0.52630128  0.41647917  0.05034857    -0.03000
N358        N  0.52940286  0.38000524  0.05905690    -0.59100
Mn359      Mn  0.55574372  0.44425872  0.00000521     1.18400
C360        C  0.00995438  0.37873774  0.09596900     0.99200
C361        C  0.62128532  0.99003836  0.09596207     0.99900
N362        N  0.93948803  0.00326286  0.41982523    -0.05300
N363        N  0.91692637  0.49180775  0.39049254    -0.61600
N364        N  0.97690912  0.08038515  0.44956741    -0.04100
N365        N  0.97442738  0.11687553  0.44106754    -0.62300
N366        N  0.99677167  0.06052293  0.41982155    -0.04800
N367        N  0.50823256  0.08307841  0.39048628    -0.61900
N368        N  0.91963221  0.02313400  0.44956984    -0.03700
N369        N  0.88314037  0.02562727  0.44107122    -0.62500
Mn370      Mn  0.50162391  0.49838857  0.41849097     1.10700
C371        C  0.88201839  0.50573003  0.40442658     1.00400
C372        C  0.49432286  0.11798965  0.40442103     1.00500
N373        N  0.99678328  0.06051891  0.08019999    -0.03900
N374        N  0.50825324  0.08307278  0.10953113    -0.60200
N375        N  0.91963981  0.02313211  0.05046118    -0.04100
N376        N  0.88314884  0.02562530  0.05896361    -0.56900
N377        N  0.93949849  0.00325965  0.08020282    -0.05400
N378        N  0.91693958  0.49180368  0.10953777    -0.59700
N379        N  0.97691697  0.08038289  0.05045785    -0.04400
N380        N  0.97444162  0.11687303  0.05895656    -0.56900
Mn381      Mn  0.00163486  0.99838476  0.08152859     1.20200
Mn382      Mn  0.94736709  0.05266627  0.50001421     1.10100
Cl383      Cl  0.50156965  0.99844721  0.00000981    -0.84900
C384        C  0.49434511  0.11798505  0.09559822     0.97400
C385        C  0.88203044  0.50572692  0.09560759     0.97200
C386        C  0.50453098  0.28081249  0.16125094     0.81300
N387        N  0.50333355  0.24813899  0.13944763    -0.77000
C388        C  0.50250053  0.21530296  0.16105764     0.83700
N389        N  0.50278970  0.21515739  0.20451017    -0.77000
C390        C  0.50401836  0.24783639  0.22647983     0.83800
N391        N  0.50488646  0.28065002  0.20467726    -0.78700
C392        C  0.50450064  0.28081841  0.33876806     0.81300
N393        N  0.50487069  0.28065323  0.29534173    -0.77000
C394        C  0.50400967  0.24783833  0.27353950     0.83700
N395        N  0.50277384  0.21516060  0.29550933    -0.77000
C396        C  0.50246983  0.21530894  0.33896155     0.83800
N397        N  0.50329620  0.24814615  0.36057136    -0.78700
C398        C  0.71920455  0.49550172  0.16124727     0.81300
N399        N  0.75187664  0.49671994  0.13944756    -0.77000
C400        C  0.78470808  0.49757275  0.16106082     0.83700
N401        N  0.78485153  0.49728140  0.20451319    -0.77000
C402        C  0.75217394  0.49603194  0.22647986     0.83800
N403        N  0.71936474  0.49514463  0.20467414    -0.78700
C404        C  0.71919521  0.49550576  0.33876708     0.81300
N405        N  0.75186420  0.49672394  0.36057234    -0.77000
C406        C  0.78469902  0.49757535  0.33896429     0.83700
N407        N  0.78484677  0.49728228  0.29551204    -0.77000
C408        C  0.75217226  0.49603279  0.27353999     0.83800
N409        N  0.71935970  0.49514689  0.29534060    -0.78700
C410        C  0.49821952  0.15213327  0.38156365    -0.12200
C411        C  0.50058984  0.18087379  0.36208819    -0.13800
C412        C  0.50549090  0.31552605  0.36163965    -0.12200
C413        C  0.50694640  0.34452194  0.38095554    -0.13800
C414        C  0.50062229  0.18086747  0.13793059    -0.12200
C415        C  0.49824893  0.15212775  0.11845457    -0.13800
C416        C  0.50552289  0.31551970  0.13837961    -0.12200
C417        C  0.50697522  0.34451648  0.11906435    -0.13800
C418        C  0.84787100  0.50183919  0.38157151    -0.12200
C419        C  0.81913147  0.49946612  0.36209409    -0.13800
C420        C  0.65549512  0.49302900  0.38095196    -0.12200
C421        C  0.68448988  0.49449387  0.36163710    -0.13800
C422        C  0.81914355  0.49946246  0.13793740    -0.12200
C423        C  0.84788456  0.50183486  0.11846371    -0.13800
C424        C  0.68450239  0.49448760  0.13837126    -0.12200
C425        C  0.65550900  0.49302200  0.11905273    -0.13800
N426        N  0.56378340  0.49349291  0.91978702    -0.05000
N427        N  0.58643764  0.00427891  0.89011796    -0.57200
N428        N  0.52629372  0.41648157  0.94966508    -0.04700
N429        N  0.52938914  0.38000768  0.94095751    -0.59300
N430        N  0.50649815  0.43623072  0.91979136    -0.04300
N431        N  0.99570576  0.41357945  0.89012336    -0.57100
N432        N  0.58352959  0.47369467  0.94966070    -0.04000
N433        N  0.62000398  0.47058986  0.94095222    -0.59600
C434        C  0.62127298  0.99004366  0.90404363     0.97100
C435        C  0.00993273  0.37874229  0.90405031     0.96900
N436        N  0.50650962  0.43622667  0.58022601    -0.05200
N437        N  0.99572597  0.41357379  0.60989783    -0.57700
N438        N  0.58353706  0.47369227  0.55034739    -0.03300
N439        N  0.62001256  0.47058651  0.55905263    -0.59000
N440        N  0.56379422  0.49348934  0.58022429    -0.05300
N441        N  0.58645118  0.00427323  0.60989164    -0.58000
N442        N  0.52630119  0.41647908  0.55034862    -0.03000
N443        N  0.52940284  0.38000523  0.55905688    -0.59100
Mn444      Mn  0.55574372  0.44425877  0.50000529     1.18400
C445        C  0.00995441  0.37873770  0.59596900     0.99200
C446        C  0.62128525  0.99003839  0.59596212     0.99900
N447        N  0.93948787  0.00326286  0.91982520    -0.05300
N448        N  0.91692622  0.49180783  0.89049253    -0.61600
N449        N  0.97690899  0.08038532  0.94956737    -0.04100
N450        N  0.97442722  0.11687552  0.94106752    -0.62300
N451        N  0.99677158  0.06052291  0.91982149    -0.04800
N452        N  0.50823257  0.08307852  0.89048634    -0.61900
N453        N  0.91963220  0.02313397  0.94956991    -0.03700
N454        N  0.88314025  0.02562733  0.94107117    -0.62500
Mn455      Mn  0.50162404  0.49838854  0.91849094     1.10700
C456        C  0.88201835  0.50573003  0.90442648     1.00400
C457        C  0.49432296  0.11798954  0.90442082     1.00500
N458        N  0.99678325  0.06051877  0.58019994    -0.03900
N459        N  0.50825320  0.08307291  0.60953114    -0.60200
N460        N  0.91963987  0.02313214  0.55046111    -0.04100
N461        N  0.88314874  0.02562540  0.55896354    -0.56900
N462        N  0.93949834  0.00325975  0.58020289    -0.05400
N463        N  0.91693967  0.49180365  0.60953752    -0.59700
N464        N  0.97691701  0.08038289  0.55045790    -0.04400
N465        N  0.97444163  0.11687300  0.55895647    -0.56900
Mn466      Mn  0.00163489  0.99838463  0.58152858     1.20200
Mn467      Mn  0.94736702  0.05266626  0.00001432     1.10100
Cl468      Cl  0.50156964  0.99844721  0.50000978    -0.84900
C469        C  0.49434515  0.11798500  0.59559834     0.97400
C470        C  0.88203036  0.50572694  0.59560757     0.97200
C471        C  0.50453105  0.28081254  0.66125092     0.81300
N472        N  0.50333362  0.24813888  0.63944764    -0.77000
C473        C  0.50250044  0.21530304  0.66105768     0.83700
N474        N  0.50278959  0.21515728  0.70451013    -0.77000
C475        C  0.50401829  0.24783676  0.72647984     0.83800
N476        N  0.50488642  0.28064984  0.70467726    -0.78700
C477        C  0.50450063  0.28081840  0.83876789     0.81300
N478        N  0.50487069  0.28065342  0.79534175    -0.77000
C479        C  0.50400957  0.24783804  0.77353950     0.83700
N480        N  0.50277371  0.21516086  0.79550931    -0.77000
C481        C  0.50246992  0.21530897  0.83896167     0.83800
N482        N  0.50329629  0.24814615  0.86057136    -0.78700
C483        C  0.71920450  0.49550175  0.66124743     0.81300
N484        N  0.75187664  0.49671989  0.63944757    -0.77000
C485        C  0.78470813  0.49757284  0.66106095     0.83700
N486        N  0.78485160  0.49728131  0.70451310    -0.77000
C487        C  0.75217410  0.49603196  0.72647995     0.83800
N488        N  0.71936471  0.49514465  0.70467414    -0.78700
C489        C  0.71919500  0.49550570  0.83876711     0.81300
N490        N  0.75186443  0.49672404  0.86057227    -0.77000
C491        C  0.78469864  0.49757544  0.83896454     0.83700
N492        N  0.78484689  0.49728236  0.79551192    -0.77000
C493        C  0.75217201  0.49603274  0.77354007     0.83800
N494        N  0.71935987  0.49514688  0.79534052    -0.78700
C495        C  0.49821954  0.15213326  0.88156362    -0.12200
C496        C  0.50058984  0.18087379  0.86208816    -0.13800
C497        C  0.50549106  0.31552601  0.86163957    -0.12200
C498        C  0.50694650  0.34452183  0.88095552    -0.13800
C499        C  0.50062229  0.18086741  0.63793068    -0.12200
C500        C  0.49824891  0.15212771  0.61845468    -0.13800
C501        C  0.50552310  0.31551958  0.63837958    -0.12200
C502        C  0.50697530  0.34451644  0.61906429    -0.13800
C503        C  0.84787085  0.50183932  0.88157152    -0.12200
C504        C  0.81913141  0.49946622  0.86209409    -0.13800
C505        C  0.65549513  0.49302901  0.88095175    -0.12200
C506        C  0.68449002  0.49449388  0.86163700    -0.13800
C507        C  0.81914353  0.49946235  0.63793727    -0.12200
C508        C  0.84788462  0.50183494  0.61846371    -0.13800
C509        C  0.68450248  0.49448775  0.63837122    -0.12200
C510        C  0.65550888  0.49302191  0.61905280    -0.13800
N511        N  0.56378358  0.99349300  0.41978700    -0.05000
N512        N  0.58643756  0.50427884  0.39011796    -0.57200
N513        N  0.52629358  0.91648165  0.44966504    -0.04700
N514        N  0.52938903  0.88000758  0.44095757    -0.59300
N515        N  0.50649831  0.93623059  0.41979131    -0.04300
N516        N  0.99570586  0.91357944  0.39012326    -0.57100
N517        N  0.58352952  0.97369459  0.44966079    -0.04000
N518        N  0.62000408  0.97058988  0.44095216    -0.59600
C519        C  0.62127304  0.49004357  0.40404378     0.97100
C520        C  0.00993294  0.87874206  0.40405031     0.96900
N521        N  0.50650969  0.93622664  0.08022612    -0.05200
N522        N  0.99572605  0.91357383  0.10989780    -0.57700
N523        N  0.58353719  0.97369232  0.05034735    -0.03300
N524        N  0.62001256  0.97058652  0.05905246    -0.59000
N525        N  0.56379418  0.99348935  0.08022412    -0.05300
N526        N  0.58645128  0.50427329  0.10989148    -0.58000
N527        N  0.52630128  0.91647922  0.05034858    -0.03000
N528        N  0.52940289  0.88000525  0.05905689    -0.59100
Mn529      Mn  0.55574377  0.94425872  0.00000518     1.18400
C530        C  0.00995441  0.87873767  0.09596903     0.99200
C531        C  0.62128526  0.49003835  0.09596204     0.99900
N532        N  0.93948799  0.50326291  0.41982520    -0.05300
N533        N  0.91692632  0.99180776  0.39049253    -0.61600
N534        N  0.97690912  0.58038521  0.44956742    -0.04100
N535        N  0.97442735  0.61687559  0.44106753    -0.62300
N536        N  0.99677167  0.56052298  0.41982156    -0.04800
N537        N  0.50823257  0.58307844  0.39048630    -0.61900
N538        N  0.91963223  0.52313405  0.44956987    -0.03700
N539        N  0.88314034  0.52562728  0.44107113    -0.62500
Mn540      Mn  0.50162396  0.99838859  0.41849097     1.10700
C541        C  0.88201842  0.00573008  0.40442646     1.00400
C542        C  0.49432285  0.61798965  0.40442107     1.00500
N543        N  0.99678324  0.56051888  0.08019988    -0.03900
N544        N  0.50825324  0.58307286  0.10953114    -0.60200
N545        N  0.91963976  0.52313213  0.05046126    -0.04100
N546        N  0.88314879  0.52562533  0.05896360    -0.56900
N547        N  0.93949849  0.50325976  0.08020272    -0.05400
N548        N  0.91693966  0.99180372  0.10953774    -0.59700
N549        N  0.97691700  0.58038284  0.05045787    -0.04400
N550        N  0.97444162  0.61687307  0.05895653    -0.56900
Mn551      Mn  0.00163486  0.49838468  0.08152861     1.20200
Mn552      Mn  0.94736710  0.55266628  0.50001423     1.10100
Cl553      Cl  0.50156965  0.49844719  0.00000980    -0.84900
C554        C  0.49434503  0.61798502  0.09559830     0.97400
C555        C  0.88203044  0.00572687  0.09560758     0.97200
C556        C  0.50453099  0.78081255  0.16125095     0.81300
N557        N  0.50333357  0.74813896  0.13944758    -0.77000
C558        C  0.50250051  0.71530304  0.16105764     0.83700
N559        N  0.50278967  0.71515737  0.20451010    -0.77000
C560        C  0.50401833  0.74783651  0.22647985     0.83800
N561        N  0.50488635  0.78064994  0.20467722    -0.78700
C562        C  0.50450063  0.78081837  0.33876804     0.81300
N563        N  0.50487066  0.78065332  0.29534174    -0.77000
C564        C  0.50400963  0.74783816  0.27353946     0.83700
N565        N  0.50277371  0.71516072  0.29550933    -0.77000
C566        C  0.50246982  0.71530886  0.33896155     0.83800
N567        N  0.50329620  0.74814622  0.36057136    -0.78700
C568        C  0.71920457  0.99550174  0.16124724     0.81300
N569        N  0.75187664  0.99672001  0.13944757    -0.77000
C570        C  0.78470812  0.99757281  0.16106081     0.83700
N571        N  0.78485153  0.99728142  0.20451320    -0.77000
C572        C  0.75217398  0.99603196  0.22647986     0.83800
N573        N  0.71936476  0.99514462  0.20467414    -0.78700
C574        C  0.71919522  0.99550565  0.33876709     0.81300
N575        N  0.75186422  0.99672394  0.36057234    -0.77000
C576        C  0.78469903  0.99757537  0.33896429     0.83700
N577        N  0.78484678  0.99728229  0.29551204    -0.77000
C578        C  0.75217228  0.99603269  0.27353998     0.83800
N579        N  0.71935974  0.99514682  0.29534060    -0.78700
C580        C  0.49821951  0.65213332  0.38156367    -0.12200
C581        C  0.50058983  0.68087383  0.36208819    -0.13800
C582        C  0.50549096  0.81552598  0.36163956    -0.12200
C583        C  0.50694645  0.84452197  0.38095558    -0.13800
C584        C  0.50062232  0.68086748  0.13793062    -0.12200
C585        C  0.49824897  0.65212782  0.11845466    -0.13800
C586        C  0.50552288  0.81551963  0.13837970    -0.12200
C587        C  0.50697526  0.84451649  0.11906429    -0.13800
C588        C  0.84787103  0.00183921  0.38157150    -0.12200
C589        C  0.81913147  0.99946619  0.36209404    -0.13800
C590        C  0.65549512  0.99302896  0.38095197    -0.12200
C591        C  0.68448992  0.99449384  0.36163708    -0.13800
C592        C  0.81914352  0.99946252  0.13793744    -0.12200
C593        C  0.84788461  0.00183484  0.11846371    -0.13800
C594        C  0.68450245  0.99448768  0.13837126    -0.12200
C595        C  0.65550902  0.99302189  0.11905271    -0.13800
N596        N  0.56378349  0.99349292  0.91978697    -0.05000
N597        N  0.58643772  0.50427880  0.89011793    -0.57200
N598        N  0.52629373  0.91648160  0.94966504    -0.04700
N599        N  0.52938914  0.88000765  0.94095750    -0.59300
N600        N  0.50649817  0.93623071  0.91979131    -0.04300
N601        N  0.99570577  0.91357948  0.89012334    -0.57100
N602        N  0.58352947  0.97369475  0.94966069    -0.04000
N603        N  0.62000408  0.97058995  0.94095220    -0.59600
C604        C  0.62127292  0.49004358  0.90404367     0.97100
C605        C  0.00993276  0.87874230  0.90405028     0.96900
N606        N  0.50650963  0.93622677  0.58022596    -0.05200
N607        N  0.99572594  0.91357368  0.60989789    -0.57700
N608        N  0.58353708  0.97369237  0.55034744    -0.03300
N609        N  0.62001255  0.97058649  0.55905260    -0.59000
N610        N  0.56379415  0.99348923  0.58022414    -0.05300
N611        N  0.58645106  0.50427317  0.60989154    -0.58000
N612        N  0.52630120  0.91647897  0.55034871    -0.03000
N613        N  0.52940288  0.88000528  0.55905688    -0.59100
Mn614      Mn  0.55574372  0.94425866  0.50000531     1.18400
C615        C  0.00995436  0.87873776  0.59596902     0.99200
C616        C  0.62128530  0.49003835  0.59596213     0.99900
N617        N  0.93948795  0.50326291  0.91982526    -0.05300
N618        N  0.91692631  0.99180783  0.89049254    -0.61600
N619        N  0.97690903  0.58038517  0.94956737    -0.04100
N620        N  0.97442724  0.61687556  0.94106756    -0.62300
N621        N  0.99677159  0.56052296  0.91982147    -0.04800
N622        N  0.50823242  0.58307842  0.89048634    -0.61900
N623        N  0.91963213  0.52313399  0.94956985    -0.03700
N624        N  0.88314029  0.52562730  0.94107129    -0.62500
Mn625      Mn  0.50162400  0.99838862  0.91849094     1.10700
C626        C  0.88201825  0.00573000  0.90442655     1.00400
C627        C  0.49432293  0.61798964  0.90442095     1.00500
N628        N  0.99678327  0.56051876  0.58019995    -0.03900
N629        N  0.50825318  0.58307288  0.60953112    -0.60200
N630        N  0.91963991  0.52313207  0.55046104    -0.04100
N631        N  0.88314873  0.52562543  0.55896360    -0.56900
N632        N  0.93949836  0.50325976  0.58020297    -0.05400
N633        N  0.91693966  0.99180370  0.60953755    -0.59700
N634        N  0.97691703  0.58038290  0.55045788    -0.04400
N635        N  0.97444166  0.61687299  0.55895646    -0.56900
Mn636      Mn  0.00163502  0.49838469  0.58152857     1.20200
Mn637      Mn  0.94736703  0.55266629  0.00001429     1.10100
Cl638      Cl  0.50156962  0.49844722  0.50000977    -0.84900
C639        C  0.49434514  0.61798502  0.59559827     0.97400
C640        C  0.88203027  0.00572691  0.59560760     0.97200
C641        C  0.50453091  0.78081240  0.66125090     0.81300
N642        N  0.50333365  0.74813900  0.63944766    -0.77000
C643        C  0.50250048  0.71530290  0.66105772     0.83700
N644        N  0.50278963  0.71515738  0.70451016    -0.77000
C645        C  0.50401836  0.74783640  0.72647982     0.83800
N646        N  0.50488646  0.78064998  0.70467727    -0.78700
C647        C  0.50450065  0.78081853  0.83876795     0.81300
N648        N  0.50487070  0.78065319  0.79534170    -0.77000
C649        C  0.50400959  0.74783833  0.77353951     0.83700
N650        N  0.50277373  0.71516063  0.79550937    -0.77000
C651        C  0.50246995  0.71530911  0.83896163     0.83800
N652        N  0.50329619  0.74814612  0.86057138    -0.78700
C653        C  0.71920447  0.99550179  0.66124739     0.81300
N654        N  0.75187656  0.99671990  0.63944755    -0.77000
C655        C  0.78470821  0.99757270  0.66106098     0.83700
N656        N  0.78485160  0.99728135  0.70451304    -0.77000
C657        C  0.75217394  0.99603204  0.72648003     0.83800
N658        N  0.71936479  0.99514461  0.70467415    -0.78700
C659        C  0.71919497  0.99550573  0.83876713     0.81300
N660        N  0.75186442  0.99672394  0.86057229    -0.77000
C661        C  0.78469871  0.99757545  0.83896456     0.83700
N662        N  0.78484682  0.99728231  0.79551192    -0.77000
C663        C  0.75217220  0.99603273  0.77354002     0.83800
N664        N  0.71935983  0.99514691  0.79534057    -0.78700
C665        C  0.49821947  0.65213334  0.88156356    -0.12200
C666        C  0.50058977  0.68087383  0.86208815    -0.13800
C667        C  0.50549101  0.81552603  0.86163957    -0.12200
C668        C  0.50694647  0.84452192  0.88095557    -0.13800
C669        C  0.50062228  0.68086739  0.63793070    -0.12200
C670        C  0.49824892  0.65212769  0.61845466    -0.13800
C671        C  0.50552310  0.81551970  0.63837952    -0.12200
C672        C  0.50697526  0.84451640  0.61906435    -0.13800
C673        C  0.84787087  0.00183930  0.88157153    -0.12200
C674        C  0.81913139  0.99946611  0.86209404    -0.13800
C675        C  0.65549504  0.99302908  0.88095181    -0.12200
C676        C  0.68449002  0.99449394  0.86163693    -0.13800
C677        C  0.81914338  0.99946239  0.63793736    -0.12200
C678        C  0.84788465  0.00183490  0.61846360    -0.13800
C679        C  0.68450246  0.99448775  0.63837126    -0.12200
C680        C  0.65550886  0.99302193  0.61905278    -0.13800
loop_ 
_geom_bond_atom_site_label_1 
_geom_bond_atom_site_label_2 
_geom_bond_distance 
_geom_bond_site_symmetry_2 
_ccdc_geom_bond_type 
N1            N7   1.317       .  A
N1          N172   1.321       .  A
N1          Mn30   2.203       .  S
N2          N171   1.321   1_545  A
N2            C9   1.351   1_545  A
N3            N5   1.317       .  A
N3            N4   1.320       .  A
N3         Mn104   2.201       .  S
N4          C350   1.350       .  A
N5          N346   1.321   1_455  A
N5          Mn30   2.203       .  S
N6          N345   1.321       .  A
N6           C10   1.351       .  A
N7            N8   1.320       .  A
N7         Mn104   2.201       .  S
N8          C179   1.350       .  A
C9          N178   1.350       .  A
C9          C250   1.435       .  S
C10         N344   1.350       .  A
C10         C413   1.435       .  S
N11          N17   1.317       .  A
N11         N352   1.321   1_455  A
N11        Mn551   2.203       .  S
N12         N351   1.321       .  A
N12          C20   1.351       .  A
N13          N14   1.320       .  A
N13          N15   1.317       .  A
N13         Mn19   2.201       .  S
N14         C191   1.350       .  A
N15         N186   1.321       .  A
N15        Mn551   2.203       .  S
N16         N185   1.321   1_545  A
N16          C21   1.351   1_545  A
N17          N18   1.320       .  A
N17         Mn19   2.200       .  S
N18         C360   1.350       .  A
Mn19         N88   2.201   1_554  S
Mn19         N92   2.201   1_554  S
Mn19       Cl213   2.545       .  S
C20         N358   1.350       .  A
C20         C417   1.435       .  S
C21         N184   1.350       .  A
C21         C255   1.435       .  S
N22          N28   1.317       .  A
N22         N193   1.321   1_545  A
N22        Mn540   2.202   1_545  S
N23         N192   1.321       .  A
N23          C31   1.350       .  A
N24          N26   1.317       .  A
N24          N25   1.321       .  A
N24         Mn42   2.204       .  S
N25         C372   1.351       .  A
N26         N367   1.321       .  A
N26        Mn540   2.202   1_545  S
N27         N366   1.321   1_455  A
N27          C32   1.350   1_455  A
N28          N29   1.321       .  A
N28         Mn42   2.204       .  S
N29         C201   1.351       .  A
Mn30        N532   2.202   1_455  S
Mn30        N536   2.202   1_455  S
Mn30       Cl298   2.546       .  S
C31         N199   1.351       .  A
C31          C78   1.436       .  S
C32         N365   1.351       .  A
C32          C70   1.436       .  S
N33          N39   1.317       .  A
N33         N374   1.321       .  A
N33         Mn41   2.202   1_545  S
N34         N373   1.321   1_455  A
N34          C44   1.350   1_455  A
N35          N36   1.321       .  A
N35          N37   1.317       .  A
N35        Mn127   2.204       .  S
N36         C215   1.351       .  A
N37         N208   1.321   1_545  A
N37         Mn41   2.202   1_545  S
N38         N207   1.321       .  A
N38          C45   1.350       .  A
N39          N40   1.321       .  A
N39        Mn127   2.204       .  S
N40         C384   1.351       .  A
Mn41        N521   2.203       .  S
Mn41        N525   2.203       .  S
Mn41       Cl383   2.546       .  S
Mn42        N120   2.204       .  S
Mn42        N124   2.204       .  S
Mn42       Cl468   2.546   1_545  S
Cl43       Mn189   2.545       .  S
Cl43       Mn285   2.546   1_554  S
Cl43       Mn381   2.546       .  S
Cl43       Mn467   2.546   1_465  S
C44         N380   1.351       .  A
C44          C75   1.436       .  S
C45         N206   1.351       .  A
C45          C83   1.436       .  S
C46          N47   1.356       .  A
C46          N51   1.357       .  A
C46          C76   1.435       .  S
N47          C48   1.357       .  A
C48          N49   1.357       .  A
C48          C74   1.435       .  S
N49          C50   1.359       .  A
C50          N51   1.359       .  A
C50          C54   1.470       .  S
C52          N53   1.357       .  A
C52          N57   1.356       .  A
C52          C72   1.435       .  S
N53          C54   1.359       .  A
C54          N55   1.359       .  A
N55          C56   1.357       .  A
C56          N57   1.357       .  A
C56          C71   1.435       .  S
C58          N59   1.356       .  A
C58          N63   1.357       .  A
C58          C84   1.435       .  S
N59          C60   1.357       .  A
C60          N61   1.357       .  A
C60          C82   1.435       .  S
N61          C62   1.359       .  A
C62          N63   1.359       .  A
C62          C68   1.470       .  S
C64          N65   1.356       .  A
C64          N69   1.357       .  A
C64          C81   1.435       .  S
N65          C66   1.357       .  A
C66          N67   1.357       .  A
C66          C79   1.435       .  S
N67          C68   1.359       .  A
C68          N69   1.359       .  A
C70          C71   1.206   1_655  T
C72          C73   1.205       .  T
C73         C350   1.435       .  S
C74          C75   1.206   1_455  T
C76          C77   1.205       .  T
C77         C360   1.435       .  S
C78          C79   1.206       .  T
C80         C179   1.435       .  S
C80          C81   1.205       .  T
C82          C83   1.206       .  T
C84          C85   1.205       .  T
C85         C191   1.435       .  S
N86         N257   1.321       .  A
N86          N92   1.317       .  A
N86        Mn115   2.203       .  S
N87         N256   1.321   1_545  A
N87          C94   1.351   1_545  A
N88          N90   1.317       .  A
N88          N89   1.320       .  A
N89         C435   1.350       .  A
N90         N431   1.321   1_455  A
N90        Mn115   2.203       .  S
N91         N430   1.321       .  A
N91          C95   1.351       .  A
N92          N93   1.320       .  A
N93         C264   1.350       .  A
C94         N263   1.350       .  A
C94         C335   1.435       .  S
C95         N429   1.350       .  A
C95         C498   1.435       .  S
N96         N102   1.317       .  A
N96         N437   1.321   1_455  A
N96        Mn636   2.203       .  S
N97         N436   1.321       .  A
N97         C105   1.351       .  A
N98          N99   1.320       .  A
N98         N100   1.317       .  A
N98        Mn104   2.201       .  S
N99         C276   1.350       .  A
N100        N271   1.321       .  A
N100       Mn636   2.203       .  S
N101        N270   1.321   1_545  A
N101        C106   1.351   1_545  A
N102        N103   1.320       .  A
N102       Mn104   2.200       .  S
N103        C445   1.350       .  A
Mn104      Cl298   2.545       .  S
C105        N443   1.350       .  A
C105        C502   1.435       .  S
C106        N269   1.350       .  A
C106        C340   1.435       .  S
N107        N278   1.321   1_545  A
N107        N113   1.317       .  A
N107       Mn625   2.202   1_545  S
N108        N277   1.321       .  A
N108        C116   1.350       .  A
N109        N111   1.317       .  A
N109        N110   1.321       .  A
N109       Mn127   2.204   1_556  S
N110        C457   1.351       .  A
N111        N452   1.321       .  A
N111       Mn625   2.202   1_545  S
N112        N451   1.321   1_455  A
N112        C117   1.350   1_455  A
N113        N114   1.321       .  A
N113       Mn127   2.204   1_556  S
N114        C286   1.351       .  A
Mn115       N617   2.202   1_455  S
Mn115       N621   2.202   1_455  S
Mn115      Cl213   2.546   1_556  S
C116        N284   1.351       .  A
C116        C163   1.436       .  S
C117        N450   1.351       .  A
C117        C155   1.436       .  S
N118        N459   1.321       .  A
N118        N124   1.317       .  A
N118       Mn126   2.202   1_545  S
N119        N458   1.321   1_455  A
N119        C129   1.350   1_455  A
N120        N121   1.321       .  A
N120        N122   1.317       .  A
N121        C300   1.351       .  A
N122        N293   1.321   1_545  A
N122       Mn126   2.202   1_545  S
N123        N292   1.321       .  A
N123        C130   1.350       .  A
N124        N125   1.321       .  A
N125        C469   1.351       .  A
Mn126       N606   2.203       .  S
Mn126       N610   2.203       .  S
Mn126      Cl468   2.546       .  S
Mn127      Cl383   2.546   1_545  S
Cl128      Mn274   2.545       .  S
Cl128      Mn200   2.546       .  S
Cl128      Mn466   2.546       .  S
Cl128      Mn382   2.546   1_465  S
C129        N465   1.351       .  A
C129        C160   1.436       .  S
C130        N291   1.351       .  A
C130        C168   1.436       .  S
C131        N132   1.356       .  A
C131        N136   1.357       .  A
C131        C161   1.435       .  S
N132        C133   1.357       .  A
C133        N134   1.357       .  A
C133        C159   1.435       .  S
N134        C135   1.359       .  A
C135        N136   1.359       .  A
C135        C139   1.470       .  S
C137        N138   1.357       .  A
C137        N142   1.356       .  A
C137        C157   1.435       .  S
N138        C139   1.359       .  A
C139        N140   1.359       .  A
N140        C141   1.357       .  A
C141        N142   1.357       .  A
C141        C156   1.435       .  S
C143        N144   1.356       .  A
C143        N148   1.357       .  A
C143        C169   1.435       .  S
N144        C145   1.357       .  A
C145        N146   1.357       .  A
C145        C167   1.435       .  S
N146        C147   1.359       .  A
C147        N148   1.359       .  A
C147        C153   1.470       .  S
C149        N150   1.356       .  A
C149        N154   1.357       .  A
C149        C166   1.435       .  S
N150        C151   1.357       .  A
C151        N152   1.357       .  A
C151        C164   1.435       .  S
N152        C153   1.359       .  A
C153        N154   1.359       .  A
C155        C156   1.206   1_655  T
C157        C158   1.205       .  T
C158        C435   1.435       .  S
C159        C160   1.206   1_455  T
C161        C162   1.205       .  T
C162        C445   1.435       .  S
C163        C164   1.206       .  T
C165        C264   1.435       .  S
C165        C166   1.205       .  T
C167        C168   1.206       .  T
C169        C170   1.205       .  T
C170        C276   1.435       .  S
N171        N177   1.317       .  A
N171       Mn200   2.203       .  S
N172        C179   1.351       .  A
N173        N175   1.317       .  A
N173        N174   1.320       .  A
N173       Mn274   2.201       .  S
N174        C520   1.350       .  A
N175        N516   1.321   1_455  A
N175       Mn200   2.203       .  S
N176        N515   1.321       .  A
N176        C180   1.351       .  A
N177        N178   1.320       .  A
N177       Mn274   2.201       .  S
C180        N514   1.350       .  A
C180        C583   1.435       .  S
N181        N187   1.317       .  A
N181        N522   1.321   1_455  A
N181       Mn381   2.203       .  S
N182        N521   1.321       .  A
N182        C190   1.351       .  A
N183        N184   1.320       .  A
N183        N185   1.317       .  A
N183       Mn189   2.201       .  S
N185       Mn381   2.203       .  S
N186        C191   1.351       .  A
N187        N188   1.320       .  A
N187       Mn189   2.200       .  S
N188        C530   1.350       .  A
Mn189       N258   2.201   1_554  S
Mn189       N262   2.201   1_554  S
C190        N528   1.350       .  A
C190        C587   1.435       .  S
N192        N198   1.317       .  A
N192       Mn370   2.202       .  S
N193        C201   1.350   1_565  A
N194        N196   1.317       .  A
N194        N195   1.321       .  A
N194       Mn212   2.204       .  S
N195        C542   1.351       .  A
N196        N537   1.321       .  A
N196       Mn370   2.202       .  S
N197        N536   1.321   1_455  A
N197        C202   1.350   1_455  A
N198        N199   1.321       .  A
N198       Mn212   2.204       .  S
Mn200       N362   2.202   1_465  S
Mn200       N366   2.202   1_465  S
C201        C248   1.436       .  S
C202        N535   1.351       .  A
C202        C240   1.436       .  S
N203        N544   1.321       .  A
N203        N209   1.317       .  A
N203       Mn211   2.202       .  S
N204        N543   1.321   1_455  A
N204        C214   1.350   1_455  A
N205        N206   1.321       .  A
N205        N207   1.317       .  A
N205       Mn297   2.204       .  S
N207       Mn211   2.202       .  S
N208        C215   1.350   1_565  A
N209        N210   1.321       .  A
N209       Mn297   2.204       .  S
N210        C554   1.351       .  A
Mn211       N351   2.203       .  S
Mn211       N355   2.203       .  S
Mn211      Cl553   2.546       .  S
Mn212       N290   2.204       .  S
Mn212       N294   2.204       .  S
Mn212      Cl638   2.546       .  S
Cl213      Mn551   2.546       .  S
Cl213      Mn637   2.546   1_455  S
C214        N550   1.351       .  A
C214        C245   1.436       .  S
C215        C253   1.436       .  S
C216        N217   1.356       .  A
C216        N221   1.357       .  A
C216        C246   1.435       .  S
N217        C218   1.357       .  A
C218        N219   1.357       .  A
C218        C244   1.435       .  S
N219        C220   1.359       .  A
C220        N221   1.359       .  A
C220        C224   1.470       .  S
C222        N223   1.357       .  A
C222        N227   1.356       .  A
C222        C242   1.435       .  S
N223        C224   1.359       .  A
C224        N225   1.359       .  A
N225        C226   1.357       .  A
C226        N227   1.357       .  A
C226        C241   1.435       .  S
C228        N229   1.356       .  A
C228        N233   1.357       .  A
C228        C254   1.435       .  S
N229        C230   1.357       .  A
C230        N231   1.357       .  A
C230        C252   1.435       .  S
N231        C232   1.359       .  A
C232        N233   1.359       .  A
C232        C238   1.470       .  S
C234        N235   1.356       .  A
C234        N239   1.357       .  A
C234        C251   1.435       .  S
N235        C236   1.357       .  A
C236        N237   1.357       .  A
C236        C249   1.435       .  S
N237        C238   1.359       .  A
C238        N239   1.359       .  A
C240        C241   1.206   1_655  T
C242        C243   1.205       .  T
C243        C520   1.435       .  S
C244        C245   1.206   1_455  T
C246        C247   1.205       .  T
C247        C530   1.435       .  S
C248        C249   1.206   1_545  T
C250        C251   1.205       .  T
C252        C253   1.206   1_565  T
C254        C255   1.205       .  T
N256        N262   1.317       .  A
N256       Mn285   2.203       .  S
N257        C264   1.351       .  A
N258        N260   1.317       .  A
N258        N259   1.320       .  A
N259        C605   1.350       .  A
N260        N601   1.321   1_455  A
N260       Mn285   2.203       .  S
N261        N600   1.321       .  A
N261        C265   1.351       .  A
N262        N263   1.320       .  A
C265        N599   1.350       .  A
C265        C668   1.435       .  S
N266        N272   1.317       .  A
N266        N607   1.321   1_455  A
N266       Mn466   2.203       .  S
N267        N606   1.321       .  A
N267        C275   1.351       .  A
N268        N269   1.320       .  A
N268        N270   1.317       .  A
N268       Mn274   2.201       .  S
N270       Mn466   2.203       .  S
N271        C276   1.351       .  A
N272        N273   1.320       .  A
N272       Mn274   2.200       .  S
N273        C615   1.350       .  A
C275        N613   1.350       .  A
C275        C672   1.435       .  S
N277        N283   1.317       .  A
N277       Mn455   2.202       .  S
N278        C286   1.350   1_565  A
N279        N281   1.317       .  A
N279        N280   1.321       .  A
N279       Mn297   2.204   1_556  S
N280        C627   1.351       .  A
N281        N622   1.321       .  A
N281       Mn455   2.202       .  S
N282        N621   1.321   1_455  A
N282        C287   1.350   1_455  A
N283        N284   1.321       .  A
N283       Mn297   2.204   1_556  S
Mn285       N447   2.202   1_465  S
Mn285       N451   2.202   1_465  S
C286        C333   1.436       .  S
C287        N620   1.351       .  A
C287        C325   1.436       .  S
N288        N629   1.321       .  A
N288        N294   1.317       .  A
N288       Mn296   2.202       .  S
N289        N628   1.321   1_455  A
N289        C299   1.350   1_455  A
N290        N291   1.321       .  A
N290        N292   1.317       .  A
N292       Mn296   2.202       .  S
N293        C300   1.350   1_565  A
N294        N295   1.321       .  A
N295        C639   1.351       .  A
Mn296       N436   2.203       .  S
Mn296       N440   2.203       .  S
Mn296      Cl638   2.546       .  S
Mn297      Cl553   2.546       .  S
Cl298      Mn636   2.546       .  S
Cl298      Mn552   2.546   1_455  S
C299        N635   1.351       .  A
C299        C330   1.436       .  S
C300        C338   1.436       .  S
C301        N302   1.356       .  A
C301        N306   1.357       .  A
C301        C331   1.435       .  S
N302        C303   1.357       .  A
C303        N304   1.357       .  A
C303        C329   1.435       .  S
N304        C305   1.359       .  A
C305        N306   1.359       .  A
C305        C309   1.470       .  S
C307        N308   1.357       .  A
C307        N312   1.356       .  A
C307        C327   1.435       .  S
N308        C309   1.359       .  A
C309        N310   1.359       .  A
N310        C311   1.357       .  A
C311        N312   1.357       .  A
C311        C326   1.435       .  S
C313        N314   1.356       .  A
C313        N318   1.357       .  A
C313        C339   1.435       .  S
N314        C315   1.357       .  A
C315        N316   1.357       .  A
C315        C337   1.435       .  S
N316        C317   1.359       .  A
C317        N318   1.359       .  A
C317        C323   1.470       .  S
C319        N320   1.356       .  A
C319        N324   1.357       .  A
C319        C336   1.435       .  S
N320        C321   1.357       .  A
C321        N322   1.357       .  A
C321        C334   1.435       .  S
N322        C323   1.359       .  A
C323        N324   1.359       .  A
C325        C326   1.206   1_655  T
C327        C328   1.205       .  T
C328        C605   1.435       .  S
C329        C330   1.206   1_455  T
C331        C332   1.205       .  T
C332        C615   1.435       .  S
C333        C334   1.206   1_545  T
C335        C336   1.205       .  T
C337        C338   1.206   1_565  T
C339        C340   1.205       .  T
N341        N512   1.321       .  A
N341        N347   1.317       .  A
N341       Mn370   2.203       .  S
N342        N511   1.321   1_545  A
N342        C349   1.351   1_545  A
N343        N345   1.317       .  A
N343        N344   1.320       .  A
N343       Mn444   2.201       .  S
N345       Mn370   2.203       .  S
N346        C350   1.351   1_655  A
N347        N348   1.320       .  A
N347       Mn444   2.201       .  S
N348        C519   1.350       .  A
C349        N518   1.350       .  A
C349        C590   1.435       .  S
N351        N357   1.317       .  A
N352        C360   1.351   1_655  A
N353        N354   1.320       .  A
N353        N355   1.317       .  A
N353       Mn359   2.201       .  S
N354        C531   1.350       .  A
N355        N526   1.321       .  A
N356        N525   1.321   1_545  A
N356        C361   1.351   1_545  A
N357        N358   1.320       .  A
N357       Mn359   2.200       .  S
Mn359       N428   2.201   1_554  S
Mn359       N432   2.201   1_554  S
Mn359      Cl553   2.545       .  S
C361        N524   1.350       .  A
C361        C595   1.435       .  S
N362        N533   1.321   1_545  A
N362        N368   1.317       .  A
N363        N532   1.321       .  A
N363        C371   1.350       .  A
N364        N366   1.317       .  A
N364        N365   1.321       .  A
N364       Mn382   2.204       .  S
N367        C372   1.350       .  A
N368        N369   1.321       .  A
N368       Mn382   2.204       .  S
N369        C541   1.351       .  A
Mn370      Cl638   2.546       .  S
C371        N539   1.351       .  A
C371        C418   1.436       .  S
C372        C410   1.436       .  S
N373        N379   1.317       .  A
N373       Mn381   2.202   1_645  S
N374        C384   1.350       .  A
N375        N376   1.321       .  A
N375        N377   1.317       .  A
N375       Mn467   2.204       .  S
N376        C555   1.351       .  A
N377        N548   1.321   1_545  A
N377       Mn381   2.202   1_645  S
N378        N547   1.321       .  A
N378        C385   1.350       .  A
N379        N380   1.321       .  A
N379       Mn467   2.204       .  S
Mn382       N460   2.204       .  S
Mn382       N464   2.204       .  S
Cl383      Mn529   2.545       .  S
Cl383      Mn625   2.546   1_554  S
C384        C415   1.436       .  S
C385        N546   1.351       .  A
C385        C423   1.436       .  S
C386        N387   1.356       .  A
C386        N391   1.357       .  A
C386        C416   1.435       .  S
N387        C388   1.357       .  A
C388        N389   1.357       .  A
C388        C414   1.435       .  S
N389        C390   1.359       .  A
C390        N391   1.359       .  A
C390        C394   1.470       .  S
C392        N393   1.357       .  A
C392        N397   1.356       .  A
C392        C412   1.435       .  S
N393        C394   1.359       .  A
C394        N395   1.359       .  A
N395        C396   1.357       .  A
C396        N397   1.357       .  A
C396        C411   1.435       .  S
C398        N399   1.356       .  A
C398        N403   1.357       .  A
C398        C424   1.435       .  S
N399        C400   1.357       .  A
C400        N401   1.357       .  A
C400        C422   1.435       .  S
N401        C402   1.359       .  A
C402        N403   1.359       .  A
C402        C408   1.470       .  S
C404        N405   1.356       .  A
C404        N409   1.357       .  A
C404        C421   1.435       .  S
N405        C406   1.357       .  A
C406        N407   1.357       .  A
C406        C419   1.435       .  S
N407        C408   1.359       .  A
C408        N409   1.359       .  A
C410        C411   1.206       .  T
C412        C413   1.205       .  T
C414        C415   1.206       .  T
C416        C417   1.205       .  T
C418        C419   1.206       .  T
C420        C519   1.435       .  S
C420        C421   1.205       .  T
C422        C423   1.206       .  T
C424        C425   1.205       .  T
C425        C531   1.435       .  S
N426        N597   1.321       .  A
N426        N432   1.317       .  A
N426       Mn455   2.203       .  S
N427        N596   1.321   1_545  A
N427        C434   1.351   1_545  A
N428        N430   1.317       .  A
N428        N429   1.320       .  A
N430       Mn455   2.203       .  S
N431        C435   1.351   1_655  A
N432        N433   1.320       .  A
N433        C604   1.350       .  A
C434        N603   1.350       .  A
C434        C675   1.435       .  S
N436        N442   1.317       .  A
N437        C445   1.351   1_655  A
N438        N439   1.320       .  A
N438        N440   1.317       .  A
N438       Mn444   2.201       .  S
N439        C616   1.350       .  A
N440        N611   1.321       .  A
N441        N610   1.321   1_545  A
N441        C446   1.351   1_545  A
N442        N443   1.320       .  A
N442       Mn444   2.200       .  S
Mn444      Cl638   2.545       .  S
C446        N609   1.350       .  A
C446        C680   1.435       .  S
N447        N618   1.321   1_545  A
N447        N453   1.317       .  A
N448        N617   1.321       .  A
N448        C456   1.350       .  A
N449        N451   1.317       .  A
N449        N450   1.321       .  A
N449       Mn467   2.204   1_556  S
N452        C457   1.350       .  A
N453        N454   1.321       .  A
N453       Mn467   2.204   1_556  S
N454        C626   1.351       .  A
Mn455      Cl553   2.546   1_556  S
C456        N624   1.351       .  A
C456        C503   1.436       .  S
C457        C495   1.436       .  S
N458        N464   1.317       .  A
N458       Mn466   2.202   1_645  S
N459        C469   1.350       .  A
N460        N461   1.321       .  A
N460        N462   1.317       .  A
N461        C640   1.351       .  A
N462        N633   1.321   1_545  A
N462       Mn466   2.202   1_645  S
N463        N632   1.321       .  A
N463        C470   1.350       .  A
N464        N465   1.321       .  A
Cl468      Mn614   2.545       .  S
Cl468      Mn540   2.546       .  S
C469        C500   1.436       .  S
C470        N631   1.351       .  A
C470        C508   1.436       .  S
C471        N472   1.356       .  A
C471        N476   1.357       .  A
C471        C501   1.435       .  S
N472        C473   1.357       .  A
C473        N474   1.357       .  A
C473        C499   1.435       .  S
N474        C475   1.359       .  A
C475        N476   1.359       .  A
C475        C479   1.470       .  S
C477        N478   1.357       .  A
C477        N482   1.356       .  A
C477        C497   1.435       .  S
N478        C479   1.359       .  A
C479        N480   1.359       .  A
N480        C481   1.357       .  A
C481        N482   1.357       .  A
C481        C496   1.435       .  S
C483        N484   1.356       .  A
C483        N488   1.357       .  A
C483        C509   1.435       .  S
N484        C485   1.357       .  A
C485        N486   1.357       .  A
C485        C507   1.435       .  S
N486        C487   1.359       .  A
C487        N488   1.359       .  A
C487        C493   1.470       .  S
C489        N490   1.356       .  A
C489        N494   1.357       .  A
C489        C506   1.435       .  S
N490        C491   1.357       .  A
C491        N492   1.357       .  A
C491        C504   1.435       .  S
N492        C493   1.359       .  A
C493        N494   1.359       .  A
C495        C496   1.206       .  T
C497        C498   1.205       .  T
C499        C500   1.206       .  T
C501        C502   1.205       .  T
C503        C504   1.206       .  T
C505        C604   1.435       .  S
C505        C506   1.205       .  T
C507        C508   1.206       .  T
C509        C510   1.205       .  T
C510        C616   1.435       .  S
N511        N517   1.317       .  A
N511       Mn540   2.203       .  S
N512        C519   1.351       .  A
N513        N515   1.317       .  A
N513        N514   1.320       .  A
N513       Mn614   2.201       .  S
N515       Mn540   2.203       .  S
N516        C520   1.351   1_655  A
N517        N518   1.320       .  A
N517       Mn614   2.201       .  S
N521        N527   1.317       .  A
N522        C530   1.351   1_655  A
N523        N524   1.320       .  A
N523        N525   1.317       .  A
N523       Mn529   2.201       .  S
N526        C531   1.351       .  A
N527        N528   1.320       .  A
N527       Mn529   2.200       .  S
Mn529       N598   2.201   1_554  S
Mn529       N602   2.201   1_554  S
N532        N538   1.317       .  A
N533        C541   1.350   1_565  A
N534        N536   1.317       .  A
N534        N535   1.321       .  A
N534       Mn552   2.204       .  S
N537        C542   1.350       .  A
N538        N539   1.321       .  A
N538       Mn552   2.204       .  S
C541        C588   1.436       .  S
C542        C580   1.436       .  S
N543        N549   1.317       .  A
N543       Mn551   2.202   1_655  S
N544        C554   1.350       .  A
N545        N546   1.321       .  A
N545        N547   1.317       .  A
N545       Mn637   2.204       .  S
N547       Mn551   2.202   1_655  S
N548        C555   1.350   1_565  A
N549        N550   1.321       .  A
N549       Mn637   2.204       .  S
Mn552       N630   2.204       .  S
Mn552       N634   2.204       .  S
C554        C585   1.436       .  S
C555        C593   1.436       .  S
C556        N557   1.356       .  A
C556        N561   1.357       .  A
C556        C586   1.435       .  S
N557        C558   1.357       .  A
C558        N559   1.357       .  A
C558        C584   1.435       .  S
N559        C560   1.359       .  A
C560        N561   1.359       .  A
C560        C564   1.470       .  S
C562        N563   1.357       .  A
C562        N567   1.356       .  A
C562        C582   1.435       .  S
N563        C564   1.359       .  A
C564        N565   1.359       .  A
N565        C566   1.357       .  A
C566        N567   1.357       .  A
C566        C581   1.435       .  S
C568        N569   1.356       .  A
C568        N573   1.357       .  A
C568        C594   1.435       .  S
N569        C570   1.357       .  A
C570        N571   1.357       .  A
C570        C592   1.435       .  S
N571        C572   1.359       .  A
C572        N573   1.359       .  A
C572        C578   1.470       .  S
C574        N575   1.356       .  A
C574        N579   1.357       .  A
C574        C591   1.435       .  S
N575        C576   1.357       .  A
C576        N577   1.357       .  A
C576        C589   1.435       .  S
N577        C578   1.359       .  A
C578        N579   1.359       .  A
C580        C581   1.206       .  T
C582        C583   1.205       .  T
C584        C585   1.206       .  T
C586        C587   1.205       .  T
C588        C589   1.206   1_545  T
C590        C591   1.205       .  T
C592        C593   1.206   1_565  T
C594        C595   1.205       .  T
N596        N602   1.317       .  A
N596       Mn625   2.203       .  S
N597        C604   1.351       .  A
N598        N600   1.317       .  A
N598        N599   1.320       .  A
N600       Mn625   2.203       .  S
N601        C605   1.351   1_655  A
N602        N603   1.320       .  A
N606        N612   1.317       .  A
N607        C615   1.351   1_655  A
N608        N609   1.320       .  A
N608        N610   1.317       .  A
N608       Mn614   2.201       .  S
N611        C616   1.351       .  A
N612        N613   1.320       .  A
N612       Mn614   2.200       .  S
N617        N623   1.317       .  A
N618        C626   1.350   1_565  A
N619        N621   1.317       .  A
N619        N620   1.321       .  A
N619       Mn637   2.204   1_556  S
N622        C627   1.350       .  A
N623        N624   1.321       .  A
N623       Mn637   2.204   1_556  S
C626        C673   1.436       .  S
C627        C665   1.436       .  S
N628        N634   1.317       .  A
N628       Mn636   2.202   1_655  S
N629        C639   1.350       .  A
N630        N631   1.321       .  A
N630        N632   1.317       .  A
N632       Mn636   2.202   1_655  S
N633        C640   1.350   1_565  A
N634        N635   1.321       .  A
C639        C670   1.436       .  S
C640        C678   1.436       .  S
C641        N642   1.356       .  A
C641        N646   1.357       .  A
C641        C671   1.435       .  S
N642        C643   1.357       .  A
C643        N644   1.357       .  A
C643        C669   1.435       .  S
N644        C645   1.359       .  A
C645        N646   1.359       .  A
C645        C649   1.470       .  S
C647        N648   1.357       .  A
C647        N652   1.356       .  A
C647        C667   1.435       .  S
N648        C649   1.359       .  A
C649        N650   1.359       .  A
N650        C651   1.357       .  A
C651        N652   1.357       .  A
C651        C666   1.435       .  S
C653        N654   1.356       .  A
C653        N658   1.357       .  A
C653        C679   1.435       .  S
N654        C655   1.357       .  A
C655        N656   1.357       .  A
C655        C677   1.435       .  S
N656        C657   1.359       .  A
C657        N658   1.359       .  A
C657        C663   1.470       .  S
C659        N660   1.356       .  A
C659        N664   1.357       .  A
C659        C676   1.435       .  S
N660        C661   1.357       .  A
C661        N662   1.357       .  A
C661        C674   1.435       .  S
N662        C663   1.359       .  A
C663        N664   1.359       .  A
C665        C666   1.206       .  T
C667        C668   1.205       .  T
C669        C670   1.206       .  T
C671        C672   1.205       .  T
C673        C674   1.206   1_545  T
C675        C676   1.205       .  T
C677        C678   1.206   1_565  T
C679        C680   1.205       .  T
