geometry optimzed in LAMMPS
_audit_creation_date              2020-11-30 
_audit_creation_method            'lammps2cif' 
_symmetry_space_group_name_H-M    'P1' 
_symmetry_Int_Tables_number       1 
_symmetry_cell_setting            triclinic 
loop_ 
_symmetry_equiv_pos_as_xyz 
  x,y,z 
_cell_length_a                    27.67266010836376 
_cell_length_b                    27.6746090883506 
_cell_length_c                    27.673389077743025 
_cell_angle_alpha                 85.55540400332976 
_cell_angle_beta                  85.67324905151685 
_cell_angle_gamma                 94.45824981807921 
loop_ 
_atom_site_label 
_atom_site_type_symbol 
_atom_site_fract_x 
_atom_site_fract_y 
_atom_site_fract_z 
_atom_site_charge 
C1          C  0.09299233  0.29399940  0.50955652     0.02800
C2          C  0.14357508  0.29415333  0.00468107    -0.13350
C3          C  0.16497337  0.25045556  0.01081137     0.00300
C4          C  0.13720201  0.20640799  0.01269675    -0.11880
C5          C  0.08682279  0.20440582  0.51751178     0.02790
C6          C  0.06402722  0.24867945  0.51632165    -0.11300
H7          H  0.16596013  0.32808764  0.00505667     0.08380
H8          H  0.15524905  0.17302000  0.01673221     0.05910
H9          H  0.02494273  0.24801660  0.52342841     0.05760
C10         C  0.40607654  0.17792103  0.11717472     0.02800
C11         C  0.35564083  0.17647621  0.11598079    -0.13350
C12         C  0.33360500  0.21941629  0.10744822     0.00300
C13         C  0.35984327  0.26412383  0.10716030    -0.11880
C14         C  0.41002239  0.26760640  0.10828300     0.02790
C15         C  0.43388805  0.22393541  0.11287639    -0.11300
H16         H  0.33455757  0.14201120  0.11414160     0.08380
H17         H  0.34105722  0.29679218  0.10104918     0.05910
H18         H  0.47323686  0.22555713  0.11011980     0.05760
C19         C  0.19100637  0.43291904  0.15716394     0.02800
C20         C  0.18958075  0.43267632  0.20771904    -0.13350
C21         C  0.23247480  0.44129659  0.22991552     0.00210
C22         C  0.27720816  0.44258043  0.20359743    -0.11880
C23         C  0.28065133  0.44238677  0.15335710     0.02790
C24         C  0.23698639  0.43809450  0.12938734    -0.11300
H25         H  0.15507719  0.43370900  0.22889212     0.08380
H26         H  0.30987813  0.44871313  0.22243254     0.05910
H27         H  0.23857103  0.44168391  0.09003858     0.05760
C28         C  0.30676154  0.04108455  0.47035255     0.02800
C29         C  0.30674161  0.04491688  0.41976695    -0.13350
C30         C  0.26300773  0.03795852  0.39852542     0.00300
C31         C  0.21903033  0.03608271  0.42629529    -0.11880
C32         C  0.21717209  0.03258255  0.47667508     0.02790
C33         C  0.26153569  0.03464841  0.99940536    -0.11300
H34         H  0.34064603  0.04449849  0.39742796     0.08380
H35         H  0.18561204  0.03138036  0.40834261     0.05910
H36         H  0.26103098  0.02838728  0.03856907     0.05760
C37         C  0.05525907  0.07984768  0.25688796     0.02800
C38         C  0.04724963  0.05094175  0.30217582    -0.13350
C39         C  0.04570435  0.07374332  0.34642985     0.00300
C40         C  0.05089672  0.12410420  0.34441821    -0.11880
C41         C  0.05462625  0.15198339  0.30027778     0.02790
C42         C  0.06171001  0.13040873  0.25675856    -0.11300
H43         H  0.03952256  0.01191813  0.30277355     0.08380
H44         H  0.04620950  0.14213081  0.37774141     0.05910
H45         H  0.06289280  0.15285904  0.22268317     0.05760
C46         C  0.44663350  0.39276228  0.37290797     0.02800
C47         C  0.44882526  0.34242692  0.37408771    -0.13350
C48         C  0.45864043  0.32086794  0.33108899     0.00300
C49         C  0.45939915  0.34744242  0.28652435    -0.11880
C50         C  0.45665515  0.39739228  0.28324497     0.02790
C51         C  0.45080870  0.42084110  0.32703804    -0.11300
H52         H  0.45028297  0.32119466  0.40852951     0.08380
H53         H  0.46653841  0.32903920  0.25380659     0.05910
H54         H  0.45257106  0.46015856  0.32566939     0.05760
O55         O  0.07708076  0.37637330  0.98844305    -0.80460
O56         O  0.44524265  0.46153649  0.22323510    -0.82020
O57         O  0.10954208  0.40985359  0.13910316    -0.79040
O58         O  0.47408804  0.32782916  0.11892701    -0.77420
O59         O  0.41299175  0.34872810  0.07207840    -0.79210
O60         O  0.14225730  0.48837193  0.12097846    -0.80150
O61         O  0.49210899  0.40075752  0.20194903    -0.81470
O62         O  0.05799233  0.34246726  0.06637476    -0.81760
Eu63       Eu  0.02433811  0.40457928  0.11461755     2.39200
O64         O  0.44579206  0.43292254  0.11792092    -0.89270
O65         O  0.07721281  0.45890920  0.06211485    -0.92870
C66         C  0.07385231  0.34025948  0.02166757     1.01820
C67         C  0.46555687  0.42219525  0.23334760     1.01630
C68         C  0.14516966  0.44360291  0.13614357     1.01580
C69         C  0.43461641  0.31754220  0.09882996     0.99440
H70         H  0.04074592  0.47855995  0.17343070     0.29190
O71         O  0.02761063  0.48236079  0.14220943    -1.01660
H72         H  0.49124043  0.37712601  0.02330317     0.29220
O73         O  0.49506016  0.40840886  0.03627053    -1.04200
O74         O  0.42456005  0.09668127  0.14070273    -0.81430
O75         O  0.05478906  0.00991435  0.40691512    -0.80960
O76         O  0.07601235  0.06433551  0.17433027    -0.79400
O77         O  0.34075403  0.43213805  0.08937940    -0.82740
O78         O  0.42281069  0.41124019  0.45413861    -0.80600
O79         O  0.15697588  0.04240218  0.04059625    -0.79240
O80         O  0.02288961  0.14395923  0.00832777    -0.80770
O81         O  0.38908131  0.06252137  0.48648317    -0.82690
O82         O  0.08301106  0.12492097  0.05726325    -0.79430
O83         O  0.35538638  0.48445754  0.00543682    -0.82100
O84         O  0.49812085  0.04514120  0.20826626    -0.77840
O85         O  0.13756057  0.49315361  0.48092437    -0.77870
O86         O  0.50144423  0.42920146  0.42186587    -0.77520
O87         O  0.36174914  0.47874885  0.15061455    -0.81010
O88         O  0.44236704  0.12914275  0.06208221    -0.80440
O89         O  0.50586315  0.06994971  0.42583690    -0.78760
Eu90       Eu  0.44920793  0.01151608  0.14632425     2.39770
Eu91       Eu  0.05037472  0.46069533  0.48408626     2.39570
Eu92       Eu  0.07990337  0.03772292  0.08998321     2.38400
Eu93       Eu  0.41738003  0.43609798  0.03929850     2.39880
Eu94       Eu  0.47352567  0.06680856  0.01310137     2.39790
O95         O  0.47163458  0.48869800  0.98644245    -0.93180
O96         O  0.50173147  0.06434377  0.09186975    -0.92070
C97         C  0.42730404  0.13216764  0.10681211     1.01990
C98         C  0.03385983  0.04859287  0.39566576     1.00710
C99         C  0.04289552  0.06099516  0.21048464     1.00100
C100        C  0.33053420  0.45211117  0.12886392     1.02110
C101        C  0.45674294  0.41400099  0.41874477     1.01030
C102        C  0.16795472  0.02126890  0.00200132     0.99880
C103        C  0.06165894  0.15513787  0.02920636     0.99930
C104        C  0.35305636  0.02919184  0.48963548     1.02550
H105        H  0.07449402  0.06171039  0.48899015     0.29920
O106        O  0.05262412  0.03982692  0.01095318    -1.05340
H107        H  0.39015045  0.02744283  0.07228603     0.31970
O108        O  0.42142758  0.01448171  0.06852704    -1.07900
C109        C  0.05539467  0.23437659  0.32813103    -0.02180
C110        C  0.03348140  0.19851043  0.30163766     0.07500
C111        C  0.98490436  0.20078431  0.28937777    -0.02290
C112        C  0.45832300  0.23850046  0.30439057    -0.02300
C113        C  0.48040128  0.27466842  0.33028800     0.07630
C114        C  0.02901056  0.27269517  0.34228789    -0.02490
Br115      Br  0.06101915  0.32350405  0.37555749    -0.01040
Br116      Br  0.12127269  0.22989868  0.34601994    -0.01110
Br117      Br  0.39172593  0.24195160  0.28820011    -0.01070
Br118      Br  0.45270259  0.15135956  0.25439377    -0.01060
C119        C  0.25678337  0.44025256  0.31333425    -0.02180
C120        C  0.23290027  0.46311427  0.27604542     0.07500
C121        C  0.22241880  0.01223623  0.27721809    -0.02290
C122        C  0.23639613  0.03846062  0.31570918    -0.02300
C123        C  0.26094617  0.01579138  0.35265800     0.07630
C124        C  0.27110240  0.46652165  0.35160430    -0.02490
Br125      Br  0.30205922  0.43325758  0.40349708    -0.01040
Br126      Br  0.27104793  0.37309279  0.31073767    -0.01110
Br127      Br  0.22112582  0.10526866  0.31878731    -0.01070
Br128      Br  0.19173316  0.04519504  0.22500927    -0.01060
C129        C  0.24820779  0.22495200  0.00975426    -0.02180
C130        C  0.21084801  0.24837155  0.03300607     0.07500
C131        C  0.21158323  0.25725599  0.08264803    -0.02290
C132        C  0.24996393  0.24283725  0.10870031    -0.02300
C133        C  0.28764375  0.22008053  0.08528904     0.07630
C134        C  0.28683619  0.21089265  0.03579023    -0.02490
Br135      Br  0.33967539  0.18179656  0.00228238    -0.01040
Br136      Br  0.24548051  0.21136064  0.44244638    -0.01110
Br137      Br  0.25210398  0.25531481  0.17638514    -0.01070
Br138      Br  0.15904992  0.28645281  0.11668481    -0.01060
C139        C  0.09299238  0.29399943  0.00955659     0.02800
C140        C  0.14357503  0.29415330  0.50468090    -0.13350
C141        C  0.16497333  0.25045553  0.51081119     0.00300
C142        C  0.13720196  0.20640796  0.51269664    -0.11880
C143        C  0.08682284  0.20440585  0.01751181     0.02790
C144        C  0.06402726  0.24867947  0.01632166    -0.11300
H145        H  0.16596009  0.32808761  0.50505645     0.08380
H146        H  0.15524900  0.17301996  0.51673209     0.05910
H147        H  0.02494277  0.24801662  0.02342835     0.05760
C148        C  0.40607652  0.17792102  0.61717465     0.02800
C149        C  0.35564082  0.17647621  0.61598062    -0.13350
C150        C  0.33360501  0.21941629  0.60744798     0.00300
C151        C  0.35984327  0.26412382  0.60716007    -0.11880
C152        C  0.41002238  0.26760640  0.60828290     0.02790
C153        C  0.43388803  0.22393541  0.61287636    -0.11300
H154        H  0.33455756  0.14201120  0.61414143     0.08380
H155        H  0.34105724  0.29679218  0.60104890     0.05910
H156        H  0.47323684  0.22555712  0.61011985     0.05760
C157        C  0.19100638  0.43291901  0.65716393     0.02800
C158        C  0.18958076  0.43267629  0.70771903    -0.13350
C159        C  0.23247480  0.44129657  0.72991552     0.00210
C160        C  0.27720816  0.44258041  0.70359742    -0.11880
C161        C  0.28065133  0.44238676  0.65335709     0.02790
C162        C  0.23698640  0.43809448  0.62938734    -0.11300
H163        H  0.15507719  0.43370896  0.72889211     0.08380
H164        H  0.30987814  0.44871312  0.72243253     0.05910
H165        H  0.23857104  0.44168389  0.59003858     0.05760
C166        C  0.30676155  0.04108459  0.97035254     0.02800
C167        C  0.30674162  0.04491692  0.91976694    -0.13350
C168        C  0.26300774  0.03795856  0.89852542     0.00300
C169        C  0.21903035  0.03608274  0.92629529    -0.11880
C170        C  0.21717210  0.03258258  0.97667508     0.02790
C171        C  0.26153568  0.03464837  0.49940536    -0.11300
H172        H  0.34064605  0.04449853  0.89742796     0.08380
H173        H  0.18561205  0.03138039  0.90834261     0.05910
H174        H  0.26103096  0.02838725  0.53856907     0.05760
C175        C  0.05525906  0.07984768  0.75688794     0.02800
C176        C  0.04724963  0.05094176  0.80217582    -0.13350
C177        C  0.04570436  0.07374333  0.84642984     0.00300
C178        C  0.05089674  0.12410421  0.84441819    -0.11880
C179        C  0.05462626  0.15198340  0.80027776     0.02790
C180        C  0.06171001  0.13040873  0.75675854    -0.11300
H181        H  0.03952255  0.01191814  0.80277355     0.08380
H182        H  0.04620952  0.14213083  0.87774138     0.05910
H183        H  0.06289279  0.15285904  0.72268314     0.05760
C184        C  0.44663349  0.39276227  0.87290798     0.02800
C185        C  0.44882525  0.34242692  0.87408772    -0.13350
C186        C  0.45864043  0.32086794  0.83108899     0.00300
C187        C  0.45939914  0.34744241  0.78652436    -0.11880
C188        C  0.45665515  0.39739228  0.78324498     0.02790
C189        C  0.45080869  0.42084110  0.82703804    -0.11300
H190        H  0.45028296  0.32119466  0.90852951     0.08380
H191        H  0.46653840  0.32903920  0.75380659     0.05910
H192        H  0.45257105  0.46015856  0.82566939     0.05760
O193        O  0.07708075  0.37637329  0.48844303    -0.80460
O194        O  0.44524265  0.46153649  0.72323510    -0.82020
O195        O  0.10954209  0.40985356  0.63910315    -0.79040
O196        O  0.47408802  0.32782915  0.61892698    -0.77420
O197        O  0.41299176  0.34872812  0.57207835    -0.79210
O198        O  0.14225730  0.48837190  0.62097846    -0.80150
O199        O  0.49210898  0.40075751  0.70194903    -0.81470
O200        O  0.05799231  0.34246722  0.56637473    -0.81760
Eu201      Eu  0.02433812  0.40457925  0.61461754     2.39200
O202        O  0.44579206  0.43292254  0.61792091    -0.89270
O203        O  0.07721282  0.45890917  0.56211484    -0.92870
C204        C  0.07385229  0.34025946  0.52166754     1.01820
C205        C  0.46555687  0.42219525  0.73334760     1.01630
C206        C  0.14516967  0.44360288  0.63614357     1.01580
C207        C  0.43461641  0.31754220  0.59882991     0.99440
H208        H  0.04074593  0.47855993  0.67343070     0.29190
O209        O  0.02761064  0.48236076  0.64220943    -1.01660
H210        H  0.49124043  0.37712602  0.52330316     0.29220
O211        O  0.49506016  0.40840887  0.53627053    -1.04200
O212        O  0.42456004  0.09668128  0.64070271    -0.81430
O213        O  0.05478907  0.00991437  0.90691512    -0.80960
O214        O  0.07601233  0.06433550  0.67433026    -0.79400
O215        O  0.34075404  0.43213805  0.58937939    -0.82740
O216        O  0.42281069  0.41124017  0.95413862    -0.80600
O217        O  0.15697587  0.04240216  0.54059625    -0.79240
O218        O  0.02288956  0.14395920  0.50832777    -0.80770
O219        O  0.38908132  0.06252141  0.98648318    -0.82690
O220        O  0.08301103  0.12492096  0.55726324    -0.79430
O221        O  0.35538639  0.48445756  0.50543681    -0.82100
O222        O  0.49812083  0.04514121  0.70826626    -0.77840
O223        O  0.13756057  0.49315362  0.98092437    -0.77870
O224        O  0.50144422  0.42920146  0.92186587    -0.77520
O225        O  0.36174915  0.47874884  0.65061454    -0.81010
O226        O  0.44236703  0.12914273  0.56208218    -0.80440
O227        O  0.50586315  0.06994974  0.92583691    -0.78760
Eu228      Eu  0.44920792  0.01151608  0.64632424     2.39770
Eu229      Eu  0.05037472  0.46069534  0.98408627     2.39570
Eu230      Eu  0.07990335  0.03772291  0.58998320     2.38400
Eu231      Eu  0.41738004  0.43609800  0.53929849     2.39880
Eu232      Eu  0.47352566  0.06680853  0.51310136     2.39790
O233        O  0.47163460  0.48869802  0.48644244    -0.93180
O234        O  0.50173146  0.06434376  0.59186974    -0.92070
C235        C  0.42730403  0.13216764  0.60681207     1.01990
C236        C  0.03385984  0.04859290  0.89566576     1.00710
C237        C  0.04289551  0.06099515  0.71048463     1.00100
C238        C  0.33053421  0.45211116  0.62886391     1.02110
C239        C  0.45674293  0.41400098  0.91874478     1.01030
C240        C  0.16795471  0.02126887  0.50200132     0.99880
C241        C  0.06165890  0.15513785  0.52920635     0.99930
C242        C  0.35305638  0.02919187  0.98963548     1.02550
H243        H  0.07449405  0.06171043  0.98899015     0.29920
O244        O  0.05262410  0.03982688  0.51095318    -1.05340
H245        H  0.39015045  0.02744281  0.57228603     0.31970
O246        O  0.42142758  0.01448169  0.56852703    -1.07900
C247        C  0.05539467  0.23437660  0.82813101    -0.02180
C248        C  0.03348140  0.19851045  0.80163763     0.07500
C249        C  0.98490436  0.20078432  0.78937775    -0.02290
C250        C  0.45832300  0.23850047  0.80439057    -0.02300
C251        C  0.48040128  0.27466842  0.83028800     0.07630
C252        C  0.02901056  0.27269516  0.84228790    -0.02490
Br253      Br  0.06101914  0.32350403  0.87555752    -0.01040
Br254      Br  0.12127270  0.22989870  0.84601989    -0.01110
Br255      Br  0.39172593  0.24195160  0.78820012    -0.01070
Br256      Br  0.45270260  0.15135958  0.75439375    -0.01060
C257        C  0.25678337  0.44025253  0.81333425    -0.02180
C258        C  0.23290027  0.46311424  0.77604541     0.07500
C259        C  0.22241880  0.01223625  0.77721810    -0.02290
C260        C  0.23639614  0.03846065  0.81570918    -0.02300
C261        C  0.26094619  0.01579141  0.85265800     0.07630
C262        C  0.27110239  0.46652162  0.85160429    -0.02490
Br263      Br  0.30205919  0.43325755  0.90349709    -0.01040
Br264      Br  0.27104795  0.37309277  0.81073766    -0.01110
Br265      Br  0.22112582  0.10526868  0.81878731    -0.01070
Br266      Br  0.19173314  0.04519505  0.72500928    -0.01060
C267        C  0.24820773  0.22495190  0.50975408    -0.02180
C268        C  0.21084799  0.24837153  0.53300586     0.07500
C269        C  0.21158326  0.25725606  0.58264780    -0.02290
C270        C  0.24996397  0.24283732  0.60870007    -0.02300
C271        C  0.28764375  0.22008052  0.58528883     0.07630
C272        C  0.28683614  0.21089256  0.53579004    -0.02490
Br273      Br  0.33967528  0.18179635  0.50228222    -0.01040
Br274      Br  0.24548064  0.21136087  0.94244652    -0.01110
Br275      Br  0.25210407  0.25531498  0.67638488    -0.01070
Br276      Br  0.15905003  0.28645299  0.61668456    -0.01060
C277        C  0.09299236  0.79399940  0.50955655     0.02800
C278        C  0.14357503  0.79415332  0.00468085    -0.13350
C279        C  0.16497333  0.75045555  0.01081115     0.00300
C280        C  0.13720196  0.70640798  0.01269663    -0.11880
C281        C  0.08682281  0.70440582  0.51751181     0.02790
C282        C  0.06402724  0.74867944  0.51632166    -0.11300
H283        H  0.16596009  0.82808763  0.00505636     0.08380
H284        H  0.15524900  0.67301998  0.01673209     0.05910
H285        H  0.02494275  0.74801660  0.52342839     0.05760
C286        C  0.40607652  0.67792103  0.11717464     0.02800
C287        C  0.35564082  0.67647622  0.11598059    -0.13350
C288        C  0.33360501  0.71941630  0.10744792     0.00300
C289        C  0.35984329  0.76412384  0.10716000    -0.11880
C290        C  0.41002239  0.76760641  0.10828287     0.02790
C291        C  0.43388804  0.72393541  0.11287636    -0.11300
H292        H  0.33455755  0.64201122  0.11414140     0.08380
H293        H  0.34105726  0.79679219  0.10104881     0.05910
H294        H  0.47323684  0.72555712  0.11011988     0.05760
C295        C  0.19100639  0.93291902  0.15716390     0.02800
C296        C  0.18958077  0.93267629  0.20771900    -0.13350
C297        C  0.23247481  0.94129656  0.22991549     0.00210
C298        C  0.27720817  0.94258040  0.20359740    -0.11880
C299        C  0.28065135  0.94238676  0.15335707     0.02790
C300        C  0.23698641  0.93809449  0.12938731    -0.11300
H301        H  0.15507720  0.93370896  0.22889209     0.08380
H302        H  0.30987815  0.94871310  0.22243251     0.05910
H303        H  0.23857105  0.94168391  0.09003855     0.05760
C304        C  0.30676154  0.54108457  0.47035257     0.02800
C305        C  0.30674161  0.54491691  0.41976697    -0.13350
C306        C  0.26300773  0.53795855  0.39852544     0.00300
C307        C  0.21903033  0.53608273  0.42629531    -0.11880
C308        C  0.21717209  0.53258257  0.47667511     0.02790
C309        C  0.26153568  0.53464838  0.99940539    -0.11300
H310        H  0.34064604  0.54449854  0.39742799     0.08380
H311        H  0.18561204  0.53138038  0.40834263     0.05910
H312        H  0.26103096  0.52838726  0.03856910     0.05760
C313        C  0.05525905  0.57984768  0.25688797     0.02800
C314        C  0.04724961  0.55094175  0.30217584    -0.13350
C315        C  0.04570433  0.57374332  0.34642987     0.00300
C316        C  0.05089669  0.62410420  0.34441822    -0.11880
C317        C  0.05462623  0.65198339  0.30027779     0.02790
C318        C  0.06171000  0.63040873  0.25675857    -0.11300
H319        H  0.03952254  0.51191813  0.30277357     0.08380
H320        H  0.04620946  0.64213082  0.37774142     0.05910
H321        H  0.06289280  0.65285903  0.22268318     0.05760
C322        C  0.44663350  0.89276228  0.37290795     0.02800
C323        C  0.44882525  0.84242692  0.37408770    -0.13350
C324        C  0.45864044  0.82086794  0.33108897     0.00300
C325        C  0.45939917  0.84744242  0.28652434    -0.11880
C326        C  0.45665517  0.89739228  0.28324495     0.02790
C327        C  0.45080871  0.92084110  0.32703802    -0.11300
H328        H  0.45028295  0.82119466  0.40852949     0.08380
H329        H  0.46653845  0.82903920  0.25380657     0.05910
H330        H  0.45257107  0.96015856  0.32566937     0.05760
O331        O  0.07708076  0.87637331  0.98844301    -0.80460
O332        O  0.44524267  0.96153649  0.22323508    -0.82020
O333        O  0.10954210  0.90985358  0.13910312    -0.79040
O334        O  0.47408804  0.82782915  0.11892695    -0.77420
O335        O  0.41299178  0.84872813  0.07207833    -0.79210
O336        O  0.14225732  0.98837191  0.12097844    -0.80150
O337        O  0.49210900  0.90075751  0.20194900    -0.81470
O338        O  0.05799232  0.84246725  0.06637470    -0.81760
Eu339      Eu  0.02433813  0.90457928  0.11461752     2.39200
O340        O  0.44579207  0.93292254  0.11792089    -0.89270
O341        O  0.07721283  0.95890919  0.06211482    -0.92870
C342        C  0.07385230  0.84025948  0.02166752     1.01820
C343        C  0.46555689  0.92219525  0.23334758     1.01630
C344        C  0.14516968  0.94360290  0.13614354     1.01580
C345        C  0.43461642  0.81754220  0.09882988     0.99440
H346        H  0.04074594  0.97855995  0.17343068     0.29190
O347        O  0.02761065  0.98236078  0.14220941    -1.01660
H348        H  0.49124044  0.87712604  0.02330313     0.29220
O349        O  0.49506017  0.90840889  0.03627050    -1.04200
O350        O  0.42456004  0.59668128  0.14070272    -0.81430
O351        O  0.05478905  0.50991436  0.40691514    -0.80960
O352        O  0.07601232  0.56433551  0.17433029    -0.79400
O353        O  0.34075405  0.93213806  0.08937937    -0.82740
O354        O  0.42281070  0.91124018  0.45413859    -0.80600
O355        O  0.15697586  0.54240218  0.04059627    -0.79240
O356        O  0.02288956  0.64395922  0.00832779    -0.80770
O357        O  0.38908131  0.56252139  0.48648320    -0.82690
O358        O  0.08301103  0.62492098  0.05726326    -0.79430
O359        O  0.35538641  0.98445758  0.00543679    -0.82100
O360        O  0.49812083  0.54514120  0.20826628    -0.77840
O361        O  0.13756057  0.99315360  0.48092435    -0.77870
O362        O  0.50144423  0.92920146  0.42186585    -0.77520
O363        O  0.36174916  0.97874884  0.15061453    -0.81010
O364        O  0.44236702  0.62914273  0.06208219    -0.80440
O365        O  0.50586314  0.56994972  0.42583692    -0.78760
Eu366      Eu  0.44920791  0.51151608  0.14632427     2.39770
Eu367      Eu  0.05037472  0.96069532  0.48408625     2.39570
Eu368      Eu  0.07990335  0.53772293  0.08998322     2.38400
Eu369      Eu  0.41738005  0.93609801  0.03929847     2.39880
Eu370      Eu  0.47352565  0.56680853  0.01310138     2.39790
O371        O  0.47163461  0.98869804  0.98644242    -0.93180
O372        O  0.50173145  0.56434376  0.09186976    -0.92070
C373        C  0.42730402  0.63216764  0.10681208     1.01990
C374        C  0.03385981  0.54859288  0.39566578     1.00710
C375        C  0.04289550  0.56099515  0.21048466     1.00100
C376        C  0.33053422  0.95211116  0.12886389     1.02110
C377        C  0.45674294  0.91400098  0.41874476     1.01030
C378        C  0.16795470  0.52126889  0.00200134     0.99880
C379        C  0.06165890  0.65513787  0.02920637     0.99930
C380        C  0.35305637  0.52919186  0.48963551     1.02550
H381        H  0.07449402  0.56171040  0.48899017     0.29920
O382        O  0.05262409  0.53982691  0.01095320    -1.05340
H383        H  0.39015044  0.52744281  0.07228605     0.31970
O384        O  0.42142757  0.51448169  0.06852705    -1.07900
C385        C  0.05539463  0.73437659  0.32813106    -0.02180
C386        C  0.03348138  0.69851044  0.30163766     0.07500
C387        C  0.98490435  0.70078433  0.28937773    -0.02290
C388        C  0.45832301  0.73850047  0.30439055    -0.02300
C389        C  0.48040129  0.77466842  0.33028799     0.07630
C390        C  0.02901052  0.77269516  0.34228791    -0.02490
Br391      Br  0.06101909  0.82350402  0.37555755    -0.01040
Br392      Br  0.12127264  0.72989867  0.34602000    -0.01110
Br393      Br  0.39172596  0.74195162  0.28820005    -0.01070
Br394      Br  0.45270263  0.65135959  0.25439372    -0.01060
C395        C  0.25678337  0.94025252  0.31333423    -0.02180
C396        C  0.23290028  0.96311424  0.27604539     0.07500
C397        C  0.22241879  0.51223626  0.27721813    -0.02290
C398        C  0.23639612  0.53846065  0.31570921    -0.02300
C399        C  0.26094618  0.51579142  0.35265802     0.07630
C400        C  0.27110239  0.96652162  0.35160428    -0.02490
Br401      Br  0.30205918  0.93325754  0.40349708    -0.01040
Br402      Br  0.27104794  0.87309275  0.31073765    -0.01110
Br403      Br  0.22112581  0.60526869  0.31878734    -0.01070
Br404      Br  0.19173312  0.54519506  0.22500931    -0.01060
C405        C  0.24820772  0.72495189  0.00975403    -0.02180
C406        C  0.21084800  0.74837156  0.03300580     0.07500
C407        C  0.21158330  0.75725613  0.08264773    -0.02290
C408        C  0.24996399  0.74283737  0.10870000    -0.02300
C409        C  0.28764375  0.72008054  0.08528878     0.07630
C410        C  0.28683612  0.71089254  0.03579000    -0.02490
Br411      Br  0.33967523  0.68179627  0.00228220    -0.01040
Br412      Br  0.24548056  0.71136069  0.44244646    -0.01110
Br413      Br  0.25210412  0.75531508  0.17638480    -0.01070
Br414      Br  0.15905010  0.78645313  0.11668447    -0.01060
C415        C  0.09299233  0.79399942  0.00955650     0.02800
C416        C  0.14357506  0.79415330  0.50468097    -0.13350
C417        C  0.16497335  0.75045552  0.51081128     0.00300
C418        C  0.13720198  0.70640796  0.51269670    -0.11880
C419        C  0.08682279  0.70440584  0.01751179     0.02790
C420        C  0.06402722  0.74867947  0.01632166    -0.11300
H421        H  0.16596012  0.82808761  0.50505654     0.08380
H422        H  0.15524902  0.67301996  0.51673217     0.05910
H423        H  0.02494274  0.74801662  0.02342843     0.05760
C424        C  0.40607654  0.67792103  0.61717469     0.02800
C425        C  0.35564083  0.67647621  0.61598071    -0.13350
C426        C  0.33360501  0.71941628  0.60744809     0.00300
C427        C  0.35984328  0.76412383  0.60716016    -0.11880
C428        C  0.41002239  0.76760640  0.60828294     0.02790
C429        C  0.43388805  0.72393541  0.61287638    -0.11300
H430        H  0.33455757  0.64201120  0.61414153     0.08380
H431        H  0.34105724  0.79679218  0.60104901     0.05910
H432        H  0.47323685  0.72555713  0.61011984     0.05760
C433        C  0.19100638  0.93291903  0.65716392     0.02800
C434        C  0.18958076  0.93267630  0.70771902    -0.13350
C435        C  0.23247481  0.94129658  0.72991550     0.00210
C436        C  0.27720817  0.94258041  0.70359741    -0.11880
C437        C  0.28065134  0.94238676  0.65335707     0.02790
C438        C  0.23698641  0.93809448  0.62938732    -0.11300
H439        H  0.15507720  0.93370898  0.72889210     0.08380
H440        H  0.30987814  0.94871312  0.72243251     0.05910
H441        H  0.23857104  0.94168390  0.59003856     0.05760
C442        C  0.30676153  0.54108455  0.97035257     0.02800
C443        C  0.30674160  0.54491688  0.91976697    -0.13350
C444        C  0.26300772  0.53795853  0.89852544     0.00300
C445        C  0.21903033  0.53608272  0.92629531    -0.11880
C446        C  0.21717209  0.53258257  0.97667510     0.02790
C447        C  0.26153568  0.53464839  0.49940539    -0.11300
H448        H  0.34064603  0.54449850  0.89742798     0.08380
H449        H  0.18561203  0.53138037  0.90834263     0.05910
H450        H  0.26103096  0.52838726  0.53856910     0.05760
C451        C  0.05525905  0.57984767  0.75688797     0.02800
C452        C  0.04724961  0.55094175  0.80217584    -0.13350
C453        C  0.04570434  0.57374332  0.84642986     0.00300
C454        C  0.05089670  0.62410420  0.84441821    -0.11880
C455        C  0.05462623  0.65198339  0.80027778     0.02790
C456        C  0.06170999  0.63040872  0.75675856    -0.11300
H457        H  0.03952255  0.51191813  0.80277357     0.08380
H458        H  0.04620947  0.64213082  0.87774141     0.05910
H459        H  0.06289278  0.65285902  0.72268317     0.05760
C460        C  0.44663350  0.89276229  0.87290795     0.02800
C461        C  0.44882525  0.84242694  0.87408770    -0.13350
C462        C  0.45864043  0.82086795  0.83108898     0.00300
C463        C  0.45939915  0.84744243  0.78652434    -0.11880
C464        C  0.45665516  0.89739229  0.78324496     0.02790
C465        C  0.45080871  0.92084112  0.82703802    -0.11300
H466        H  0.45028295  0.82119468  0.90852950     0.08380
H467        H  0.46653842  0.82903921  0.75380658     0.05910
H468        H  0.45257107  0.96015857  0.82566937     0.05760
O469        O  0.07708076  0.87637328  0.48844303    -0.80460
O470        O  0.44524266  0.96153649  0.72323508    -0.82020
O471        O  0.10954210  0.90985357  0.63910314    -0.79040
O472        O  0.47408803  0.82782916  0.61892698    -0.77420
O473        O  0.41299176  0.84872811  0.57207836    -0.79210
O474        O  0.14225730  0.98837191  0.62097844    -0.80150
O475        O  0.49210899  0.90075752  0.70194901    -0.81470
O476        O  0.05799233  0.84246723  0.56637473    -0.81760
Eu477      Eu  0.02433813  0.90457926  0.61461753     2.39200
O478        O  0.44579206  0.93292254  0.61792090    -0.89270
O479        O  0.07721282  0.95890918  0.56211483    -0.92870
C480        C  0.07385231  0.84025946  0.52166755     1.01820
C481        C  0.46555688  0.92219526  0.73334758     1.01630
C482        C  0.14516967  0.94360289  0.63614355     1.01580
C483        C  0.43461641  0.81754220  0.59882992     0.99440
H484        H  0.04074594  0.97855994  0.67343068     0.29190
O485        O  0.02761064  0.98236077  0.64220942    -1.01660
H486        H  0.49124044  0.87712601  0.52330316     0.29220
O487        O  0.49506016  0.90840886  0.53627052    -1.04200
O488        O  0.42456004  0.59668127  0.64070274    -0.81430
O489        O  0.05478906  0.50991436  0.90691514    -0.80960
O490        O  0.07601233  0.56433549  0.67433029    -0.79400
O491        O  0.34075404  0.93213805  0.58937938    -0.82740
O492        O  0.42281070  0.91124021  0.95413859    -0.80600
O493        O  0.15697586  0.54240216  0.54059628    -0.79240
O494        O  0.02288958  0.64395920  0.50832780    -0.80770
O495        O  0.38908130  0.56252137  0.98648319    -0.82690
O496        O  0.08301104  0.62492095  0.55726326    -0.79430
O497        O  0.35538639  0.98445754  0.50543680    -0.82100
O498        O  0.49812083  0.54514120  0.70826628    -0.77840
O499        O  0.13756058  0.99315363  0.98092435    -0.77870
O500        O  0.50144424  0.92920148  0.92186584    -0.77520
O501        O  0.36174915  0.97874884  0.65061453    -0.81010
O502        O  0.44236705  0.62914274  0.56208221    -0.80440
O503        O  0.50586313  0.56994971  0.92583692    -0.78760
Eu504      Eu  0.44920792  0.51151608  0.64632426     2.39770
Eu505      Eu  0.05037474  0.96069536  0.98408624     2.39570
Eu506      Eu  0.07990335  0.53772290  0.58998323     2.38400
Eu507      Eu  0.41738004  0.93609799  0.53929848     2.39880
Eu508      Eu  0.47352567  0.56680854  0.51310138     2.39790
O509        O  0.47163460  0.98869801  0.48644243    -0.93180
O510        O  0.50173146  0.56434376  0.59186976    -0.92070
C511        C  0.42730404  0.63216764  0.60681210     1.01990
C512        C  0.03385982  0.54859289  0.89566578     1.00710
C513        C  0.04289550  0.56099514  0.71048466     1.00100
C514        C  0.33053421  0.95211116  0.62886390     1.02110
C515        C  0.45674295  0.91400101  0.91874475     1.01030
C516        C  0.16795471  0.52126888  0.50200135     0.99880
C517        C  0.06165891  0.65513785  0.52920638     0.99930
C518        C  0.35305636  0.52919183  0.98963550     1.02550
H519        H  0.07449402  0.56171042  0.98899017     0.29920
O520        O  0.05262409  0.53982689  0.51095320    -1.05340
H521        H  0.39015045  0.52744282  0.57228605     0.31970
O522        O  0.42142758  0.51448170  0.56852705    -1.07900
C523        C  0.05539465  0.73437659  0.82813104    -0.02180
C524        C  0.03348138  0.69851044  0.80163765     0.07500
C525        C  0.98490434  0.70078432  0.78937775    -0.02290
C526        C  0.45832299  0.73850048  0.80439056    -0.02300
C527        C  0.48040127  0.77466843  0.83028799     0.07630
C528        C  0.02901054  0.77269516  0.84228790    -0.02490
Br529      Br  0.06101913  0.82350403  0.87555752    -0.01040
Br530      Br  0.12127267  0.72989867  0.84601994    -0.01110
Br531      Br  0.39172593  0.74195163  0.78820008    -0.01070
Br532      Br  0.45270258  0.65135957  0.75439376    -0.01060
C533        C  0.25678338  0.94025255  0.81333423    -0.02180
C534        C  0.23290028  0.96311426  0.77604539     0.07500
C535        C  0.22241878  0.51223623  0.77721812    -0.02290
C536        C  0.23639612  0.53846063  0.81570920    -0.02300
C537        C  0.26094617  0.51579139  0.85265802     0.07630
C538        C  0.27110241  0.96652165  0.85160428    -0.02490
Br539      Br  0.30205921  0.93325758  0.90349707    -0.01040
Br540      Br  0.27104795  0.87309278  0.81073766    -0.01110
Br541      Br  0.22112580  0.60526866  0.81878734    -0.01070
Br542      Br  0.19173313  0.54519503  0.72500930    -0.01060
C543        C  0.24820775  0.72495191  0.50975417    -0.02180
C544        C  0.21084800  0.74837152  0.53300596     0.07500
C545        C  0.21158326  0.75725603  0.58264790    -0.02290
C546        C  0.24996396  0.74283729  0.60870018    -0.02300
C547        C  0.28764375  0.72008051  0.58528893     0.07630
C548        C  0.28683616  0.71089258  0.53579014    -0.02490
Br549      Br  0.33967532  0.68179640  0.50228231    -0.01040
Br550      Br  0.24548047  0.71136058  0.94244634    -0.01110
Br551      Br  0.25210405  0.75531493  0.67638499    -0.01070
Br552      Br  0.15904999  0.78645292  0.61668466    -0.01060
C553        C  0.59299232  0.29399938  0.50955652     0.02800
C554        C  0.64357502  0.29415330  0.00468082    -0.13350
C555        C  0.66497333  0.25045553  0.01081111     0.00300
C556        C  0.63720196  0.20640796  0.01269661    -0.11880
C557        C  0.58682278  0.20440580  0.51751178     0.02790
C558        C  0.56402721  0.24867942  0.51632167    -0.11300
H559        H  0.66596008  0.32808761  0.00505632     0.08380
H560        H  0.65524900  0.17301996  0.01673206     0.05910
H561        H  0.52494273  0.24801658  0.52342844     0.05760
C562        C  0.90607653  0.17792107  0.11717462     0.02800
C563        C  0.85564084  0.17647625  0.11598055    -0.13350
C564        C  0.83360502  0.21941632  0.10744788     0.00300
C565        C  0.85984329  0.26412386  0.10715997    -0.11880
C566        C  0.91002239  0.26760644  0.10828286     0.02790
C567        C  0.93388804  0.22393546  0.11287635    -0.11300
H568        H  0.83455758  0.14201124  0.11414136     0.08380
H569        H  0.84105725  0.29679222  0.10104877     0.05910
H570        H  0.97323684  0.22555717  0.11011988     0.05760
C571        C  0.69100639  0.43291902  0.15716393     0.02800
C572        C  0.68958077  0.43267629  0.20771903    -0.13350
C573        C  0.73247482  0.44129658  0.22991552     0.00210
C574        C  0.77720817  0.44258043  0.20359742    -0.11880
C575        C  0.78065134  0.44238679  0.15335708     0.02790
C576        C  0.73698641  0.43809450  0.12938734    -0.11300
H577        H  0.65507720  0.43370896  0.22889212     0.08380
H578        H  0.80987815  0.44871315  0.22243252     0.05910
H579        H  0.73857104  0.44168392  0.09003858     0.05760
C580        C  0.80676154  0.04108456  0.47035254     0.02800
C581        C  0.80674160  0.04491688  0.41976694    -0.13350
C582        C  0.76300772  0.03795851  0.39852542     0.00300
C583        C  0.71903032  0.03608269  0.42629529    -0.11880
C584        C  0.71717208  0.03258255  0.47667509     0.02790
C585        C  0.76153569  0.03464843  0.99940536    -0.11300
H586        H  0.84064603  0.04449850  0.39742796     0.08380
H587        H  0.68561203  0.03138034  0.40834261     0.05910
H588        H  0.76103098  0.02838729  0.03856907     0.05760
C589        C  0.55525906  0.07984764  0.25688797     0.02800
C590        C  0.54724962  0.05094172  0.30217584    -0.13350
C591        C  0.54570434  0.07374328  0.34642986     0.00300
C592        C  0.55089672  0.12410416  0.34441821    -0.11880
C593        C  0.55462626  0.15198335  0.30027779     0.02790
C594        C  0.56171002  0.13040869  0.25675856    -0.11300
H595        H  0.53952254  0.01191809  0.30277357     0.08380
H596        H  0.54620950  0.14213078  0.37774141     0.05910
H597        H  0.56289281  0.15285899  0.22268317     0.05760
C598        C  0.94663349  0.39276231  0.37290796     0.02800
C599        C  0.94882525  0.34242696  0.37408770    -0.13350
C600        C  0.95864042  0.32086798  0.33108897     0.00300
C601        C  0.95939913  0.34744246  0.28652434    -0.11880
C602        C  0.95665513  0.39739232  0.28324496     0.02790
C603        C  0.95080868  0.42084114  0.32703803    -0.11300
H604        H  0.95028296  0.32119470  0.40852949     0.08380
H605        H  0.96653839  0.32903924  0.25380658     0.05910
H606        H  0.95257105  0.46015860  0.32566938     0.05760
O607        O  0.57708075  0.37637328  0.98844303    -0.80460
O608        O  0.94524264  0.46153653  0.22323509    -0.82020
O609        O  0.60954210  0.40985356  0.13910316    -0.79040
O610        O  0.97408802  0.32782920  0.11892697    -0.77420
O611        O  0.91299177  0.34872817  0.07207833    -0.79210
O612        O  0.64225730  0.48837190  0.12097847    -0.80150
O613        O  0.99210897  0.40075756  0.20194902    -0.81470
O614        O  0.55799232  0.34246721  0.06637473    -0.81760
Eu615      Eu  0.52433813  0.40457924  0.11461755     2.39200
O616        O  0.94579205  0.43292259  0.11792090    -0.89270
O617        O  0.57721282  0.45890916  0.06211485    -0.92870
C618        C  0.57385229  0.34025945  0.02166754     1.01820
C619        C  0.96555686  0.42219530  0.23334759     1.01630
C620        C  0.64516967  0.44360289  0.13614357     1.01580
C621        C  0.93461641  0.31754224  0.09882989     0.99440
H622        H  0.54074593  0.47855991  0.17343070     0.29190
O623        O  0.52761063  0.48236075  0.14220944    -1.01660
H624        H  0.99124044  0.37712606  0.02330316     0.29220
O625        O  0.99506016  0.40840891  0.03627052    -1.04200
O626        O  0.92456006  0.09668133  0.14070269    -0.81430
O627        O  0.55478905  0.00991432  0.40691514    -0.80960
O628        O  0.57601233  0.06433548  0.17433028    -0.79400
O629        O  0.84075404  0.43213809  0.08937938    -0.82740
O630        O  0.92281069  0.41124023  0.45413860    -0.80600
O631        O  0.65697587  0.04240217  0.04059626    -0.79240
O632        O  0.52288957  0.14395919  0.00832780    -0.80770
O633        O  0.88908131  0.06252139  0.48648316    -0.82690
O634        O  0.58301104  0.12492095  0.05726326    -0.79430
O635        O  0.85538639  0.48445760  0.00543680    -0.82100
O636        O  0.99812085  0.04514125  0.20826624    -0.77840
O637        O  0.63756057  0.49315359  0.48092438    -0.77870
O638        O  0.00144423  0.42920149  0.42186585    -0.77520
O639        O  0.86174915  0.47874889  0.15061453    -0.81010
O640        O  0.94236706  0.12914279  0.06208216    -0.80440
O641        O  0.00586315  0.06994973  0.42583689    -0.78760
Eu642      Eu  0.94920793  0.01151613  0.14632423     2.39770
Eu643      Eu  0.55037472  0.46069531  0.48408628     2.39570
Eu644      Eu  0.57990336  0.03772290  0.08998322     2.38400
Eu645      Eu  0.91738004  0.43609805  0.03929848     2.39880
Eu646      Eu  0.97352569  0.06680860  0.01310134     2.39790
O647        O  0.97163460  0.48869806  0.98644242    -0.93180
O648        O  0.00173148  0.06434381  0.09186972    -0.92070
C649        C  0.92730405  0.13216769  0.10681205     1.01990
C650        C  0.53385982  0.04859285  0.39566578     1.00710
C651        C  0.54289551  0.06099511  0.21048465     1.00100
C652        C  0.83053421  0.45211120  0.12886391     1.02110
C653        C  0.95674294  0.41400102  0.41874476     1.01030
C654        C  0.66795472  0.02126889  0.00200133     0.99880
C655        C  0.56165891  0.15513784  0.02920638     0.99930
C656        C  0.85305636  0.02919185  0.48963548     1.02550
H657        H  0.57449402  0.06171038  0.48899016     0.29920
O658        O  0.55262410  0.03982689  0.01095319    -1.05340
H659        H  0.89015047  0.02744288  0.07228601     0.31970
O660        O  0.92142760  0.01448176  0.06852702    -1.07900
C661        C  0.55539467  0.23437655  0.32813104    -0.02180
C662        C  0.53348141  0.19851040  0.30163765     0.07500
C663        C  0.48490437  0.20078428  0.28937776    -0.02290
C664        C  0.95832299  0.23850050  0.30439057    -0.02300
C665        C  0.98040128  0.27466846  0.33028798     0.07630
C666        C  0.52901056  0.27269512  0.34228790    -0.02490
Br667      Br  0.56101915  0.32350400  0.37555751    -0.01040
Br668      Br  0.62127270  0.22989864  0.34601994    -0.01110
Br669      Br  0.89172593  0.24195163  0.28820010    -0.01070
Br670      Br  0.95270258  0.15135958  0.25439380    -0.01060
C671        C  0.75678339  0.44025255  0.31333424    -0.02180
C672        C  0.73290028  0.46311426  0.27604541     0.07500
C673        C  0.72241879  0.01223622  0.27721810    -0.02290
C674        C  0.73639612  0.03846061  0.31570918    -0.02300
C675        C  0.76094617  0.01579137  0.35265800     0.07630
C676        C  0.77110242  0.46652165  0.35160429    -0.02490
Br677      Br  0.80205924  0.43325759  0.40349708    -0.01040
Br678      Br  0.77104799  0.37309279  0.31073766    -0.01110
Br679      Br  0.72112580  0.10526864  0.31878732    -0.01070
Br680      Br  0.69173313  0.04519501  0.22500928    -0.01060
C681        C  0.74820772  0.22495187  0.00975400    -0.02180
C682        C  0.71084800  0.24837155  0.03300576     0.07500
C683        C  0.71158331  0.25725614  0.08264768    -0.02290
C684        C  0.74996400  0.24283739  0.10869996    -0.02300
C685        C  0.78764376  0.22008055  0.08528874     0.07630
C686        C  0.78683613  0.21089254  0.03578996    -0.02490
Br687      Br  0.83967524  0.18179626  0.00228217    -0.01040
Br688      Br  0.74548048  0.21136058  0.44244635    -0.01110
Br689      Br  0.75210414  0.25531513  0.17638474    -0.01070
Br690      Br  0.65905012  0.28645316  0.11668442    -0.01060
C691        C  0.59299232  0.29399939  0.00955651     0.02800
C692        C  0.64357502  0.29415328  0.50468086    -0.13350
C693        C  0.66497332  0.25045551  0.51081115     0.00300
C694        C  0.63720195  0.20640794  0.51269662    -0.11880
C695        C  0.58682279  0.20440581  0.01751179     0.02790
C696        C  0.56402721  0.24867943  0.01632168    -0.11300
H697        H  0.66596008  0.32808759  0.50505639     0.08380
H698        H  0.65524899  0.17301994  0.51673207     0.05910
H699        H  0.52494273  0.24801658  0.02342847     0.05760
C700        C  0.90607653  0.17792105  0.61717463     0.02800
C701        C  0.85564083  0.17647623  0.61598058    -0.13350
C702        C  0.83360501  0.21941630  0.60744793     0.00300
C703        C  0.85984328  0.26412384  0.60716001    -0.11880
C704        C  0.91002239  0.26760642  0.60828287     0.02790
C705        C  0.93388804  0.22393543  0.61287634    -0.11300
H706        H  0.83455757  0.14201122  0.61414140     0.08380
H707        H  0.84105724  0.29679219  0.60104883     0.05910
H708        H  0.97323684  0.22555715  0.61011985     0.05760
C709        C  0.69100639  0.43291900  0.65716394     0.02800
C710        C  0.68958077  0.43267629  0.70771904    -0.13350
C711        C  0.73247482  0.44129658  0.72991552     0.00210
C712        C  0.77720817  0.44258043  0.70359742    -0.11880
C713        C  0.78065134  0.44238677  0.65335709     0.02790
C714        C  0.73698641  0.43809447  0.62938734    -0.11300
H715        H  0.65507720  0.43370896  0.72889212     0.08380
H716        H  0.80987815  0.44871315  0.72243252     0.05910
H717        H  0.73857104  0.44168388  0.59003858     0.05760
C718        C  0.80676155  0.04108463  0.97035254     0.02800
C719        C  0.80674162  0.04491697  0.91976694    -0.13350
C720        C  0.76300774  0.03795860  0.89852542     0.00300
C721        C  0.71903034  0.03608276  0.92629529    -0.11880
C722        C  0.71717210  0.03258259  0.97667508     0.02790
C723        C  0.76153568  0.03464838  0.49940536    -0.11300
H724        H  0.84064604  0.04449860  0.89742795     0.08380
H725        H  0.68561205  0.03138040  0.90834261     0.05910
H726        H  0.76103096  0.02838726  0.53856908     0.05760
C727        C  0.55525905  0.07984765  0.75688796     0.02800
C728        C  0.54724960  0.05094173  0.80217583    -0.13350
C729        C  0.54570434  0.07374330  0.84642985     0.00300
C730        C  0.55089672  0.12410418  0.84441820    -0.11880
C731        C  0.55462626  0.15198337  0.80027777     0.02790
C732        C  0.56171002  0.13040870  0.75675855    -0.11300
H733        H  0.53952252  0.01191811  0.80277357     0.08380
H734        H  0.54620950  0.14213081  0.87774140     0.05910
H735        H  0.56289282  0.15285900  0.72268316     0.05760
C736        C  0.94663349  0.39276231  0.87290796     0.02800
C737        C  0.94882525  0.34242695  0.87408771    -0.13350
C738        C  0.95864042  0.32086797  0.83108899     0.00300
C739        C  0.95939913  0.34744244  0.78652435    -0.11880
C740        C  0.95665515  0.39739231  0.78324497     0.02790
C741        C  0.95080870  0.42084113  0.82703803    -0.11300
H742        H  0.95028296  0.32119470  0.90852951     0.08380
H743        H  0.96653840  0.32903922  0.75380659     0.05910
H744        H  0.95257106  0.46015859  0.82566937     0.05760
O745        O  0.57708075  0.37637327  0.48844303    -0.80460
O746        O  0.94524266  0.46153651  0.72323509    -0.82020
O747        O  0.60954210  0.40985354  0.63910316    -0.79040
O748        O  0.97408802  0.32782917  0.61892696    -0.77420
O749        O  0.91299177  0.34872815  0.57207833    -0.79210
O750        O  0.64225730  0.48837188  0.62097847    -0.80150
O751        O  0.99210898  0.40075753  0.70194902    -0.81470
O752        O  0.55799231  0.34246720  0.56637473    -0.81760
Eu753      Eu  0.52433812  0.40457923  0.61461755     2.39200
O754        O  0.94579206  0.43292256  0.61792090    -0.89270
O755        O  0.57721282  0.45890915  0.56211486    -0.92870
C756        C  0.57385229  0.34025944  0.52166754     1.01820
C757        C  0.96555687  0.42219527  0.73334759     1.01630
C758        C  0.64516967  0.44360287  0.63614358     1.01580
C759        C  0.93461641  0.31754222  0.59882989     0.99440
H760        H  0.54074593  0.47855990  0.67343071     0.29190
O761        O  0.52761064  0.48236074  0.64220944    -1.01660
H762        H  0.99124043  0.37712604  0.52330315     0.29220
O763        O  0.99506016  0.40840889  0.53627051    -1.04200
O764        O  0.92456005  0.09668130  0.64070270    -0.81430
O765        O  0.55478905  0.00991435  0.90691513    -0.80960
O766        O  0.57601232  0.06433548  0.67433028    -0.79400
O767        O  0.84075404  0.43213807  0.58937938    -0.82740
O768        O  0.92281069  0.41124024  0.95413859    -0.80600
O769        O  0.65697586  0.04240215  0.54059626    -0.79240
O770        O  0.52288956  0.14395917  0.50832778    -0.80770
O771        O  0.88908133  0.06252144  0.98648316    -0.82690
O772        O  0.58301103  0.12492094  0.55726325    -0.79430
O773        O  0.85538639  0.48445759  0.50543681    -0.82100
O774        O  0.99812084  0.04514124  0.70826624    -0.77840
O775        O  0.63756056  0.49315360  0.98092437    -0.77870
O776        O  0.00144423  0.42920149  0.92186586    -0.77520
O777        O  0.86174915  0.47874886  0.65061454    -0.81010
O778        O  0.94236704  0.12914275  0.56208216    -0.80440
O779        O  0.00586317  0.06994977  0.92583688    -0.78760
Eu780      Eu  0.94920792  0.01151611  0.64632423     2.39770
Eu781      Eu  0.55037472  0.46069531  0.98408627     2.39570
Eu782      Eu  0.57990335  0.03772289  0.58998321     2.38400
Eu783      Eu  0.91738004  0.43609803  0.53929848     2.39880
Eu784      Eu  0.97352567  0.06680855  0.51310135     2.39790
O785        O  0.97163460  0.48869805  0.48644243    -0.93180
O786        O  0.00173146  0.06434378  0.59186972    -0.92070
C787        C  0.92730404  0.13216766  0.60681206     1.01990
C788        C  0.53385982  0.04859287  0.89566578     1.00710
C789        C  0.54289550  0.06099512  0.71048465     1.00100
C790        C  0.83053421  0.45211118  0.62886391     1.02110
C791        C  0.95674294  0.41400102  0.91874476     1.01030
C792        C  0.66795470  0.02126886  0.50200133     0.99880
C793        C  0.56165889  0.15513783  0.52920636     0.99930
C794        C  0.85305638  0.02919191  0.98963547     1.02550
H795        H  0.57449403  0.06171040  0.98899016     0.29920
O796        O  0.55262409  0.03982687  0.51095319    -1.05340
H797        H  0.89015045  0.02744284  0.57228602     0.31970
O798        O  0.92142758  0.01448172  0.56852702    -1.07900
C799        C  0.55539468  0.23437657  0.82813102    -0.02180
C800        C  0.53348141  0.19851042  0.80163764     0.07500
C801        C  0.48490437  0.20078429  0.78937775    -0.02290
C802        C  0.95832298  0.23850049  0.80439058    -0.02300
C803        C  0.98040127  0.27466845  0.83028800     0.07630
C804        C  0.52901056  0.27269513  0.84228790    -0.02490
Br805      Br  0.56101915  0.32350401  0.87555751    -0.01040
Br806      Br  0.62127271  0.22989866  0.84601991    -0.01110
Br807      Br  0.89172592  0.24195162  0.78820013    -0.01070
Br808      Br  0.95270258  0.15135960  0.75439376    -0.01060
C809        C  0.75678339  0.44025256  0.81333424    -0.02180
C810        C  0.73290028  0.46311427  0.77604541     0.07500
C811        C  0.72241879  0.01223628  0.77721811    -0.02290
C812        C  0.73639613  0.03846068  0.81570918    -0.02300
C813        C  0.76094619  0.01579145  0.85265800     0.07630
C814        C  0.77110241  0.46652167  0.85160429    -0.02490
Br815      Br  0.80205923  0.43325761  0.90349708    -0.01040
Br816      Br  0.77104799  0.37309280  0.81073766    -0.01110
Br817      Br  0.72112579  0.10526871  0.81878732    -0.01070
Br818      Br  0.69173312  0.04519507  0.72500929    -0.01060
C819        C  0.74820772  0.22495187  0.50975404    -0.02180
C820        C  0.71084798  0.24837152  0.53300581     0.07500
C821        C  0.71158327  0.25725607  0.58264774    -0.02290
C822        C  0.74996398  0.24283734  0.60870002    -0.02300
C823        C  0.78764375  0.22008053  0.58528878     0.07630
C824        C  0.78683613  0.21089254  0.53579000    -0.02490
Br825      Br  0.83967526  0.18179631  0.50228219    -0.01040
Br826      Br  0.74548046  0.21136052  0.94244632    -0.01110
Br827      Br  0.75210410  0.25531503  0.67638481    -0.01070
Br828      Br  0.65905005  0.28645302  0.61668450    -0.01060
C829        C  0.59299235  0.79399938  0.50955655     0.02800
C830        C  0.64357501  0.79415328  0.00468079    -0.13350
C831        C  0.66497331  0.75045551  0.01081109     0.00300
C832        C  0.63720194  0.70640794  0.01269659    -0.11880
C833        C  0.58682281  0.70440579  0.51751182     0.02790
C834        C  0.56402724  0.74867942  0.51632167    -0.11300
H835        H  0.66596007  0.82808759  0.00505628     0.08380
H836        H  0.65524898  0.67301994  0.01673205     0.05910
H837        H  0.52494275  0.74801658  0.52342840     0.05760
C838        C  0.90607652  0.67792108  0.11717462     0.02800
C839        C  0.85564082  0.67647626  0.11598054    -0.13350
C840        C  0.83360502  0.71941634  0.10744785     0.00300
C841        C  0.85984328  0.76412388  0.10715993    -0.11880
C842        C  0.91002239  0.76760645  0.10828283     0.02790
C843        C  0.93388803  0.72393546  0.11287634    -0.11300
H844        H  0.83455756  0.64201125  0.11414135     0.08380
H845        H  0.84105725  0.79679223  0.10104872     0.05910
H846        H  0.97323683  0.72555717  0.11011988     0.05760
C847        C  0.69100640  0.93291901  0.15716390     0.02800
C848        C  0.68958078  0.93267627  0.20771900    -0.13350
C849        C  0.73247483  0.94129656  0.22991549     0.00210
C850        C  0.77720819  0.94258043  0.20359739    -0.11880
C851        C  0.78065136  0.94238679  0.15335706     0.02790
C852        C  0.73698642  0.93809450  0.12938730    -0.11300
H853        H  0.65507721  0.93370893  0.22889208     0.08380
H854        H  0.80987816  0.94871314  0.22243250     0.05910
H855        H  0.73857106  0.94168393  0.09003854     0.05760
C856        C  0.80676154  0.54108459  0.47035257     0.02800
C857        C  0.80674160  0.54491692  0.41976697    -0.13350
C858        C  0.76300772  0.53795854  0.39852544     0.00300
C859        C  0.71903033  0.53608271  0.42629531    -0.11880
C860        C  0.71717208  0.53258256  0.47667511     0.02790
C861        C  0.76153567  0.53464841  0.99940538    -0.11300
H862        H  0.84064603  0.54449855  0.39742798     0.08380
H863        H  0.68561203  0.53138035  0.40834263     0.05910
H864        H  0.76103096  0.52838728  0.03856909     0.05760
C865        C  0.55525905  0.57984763  0.25688798     0.02800
C866        C  0.54724960  0.55094171  0.30217585    -0.13350
C867        C  0.54570433  0.57374329  0.34642987     0.00300
C868        C  0.55089672  0.62410416  0.34441823    -0.11880
C869        C  0.55462626  0.65198335  0.30027780     0.02790
C870        C  0.56171003  0.63040868  0.25675858    -0.11300
H871        H  0.53952252  0.51191809  0.30277359     0.08380
H872        H  0.54620949  0.64213078  0.37774142     0.05910
H873        H  0.56289283  0.65285899  0.22268318     0.05760
C874        C  0.94663348  0.89276232  0.37290794     0.02800
C875        C  0.94882521  0.84242696  0.37408768    -0.13350
C876        C  0.95864040  0.82086798  0.33108896     0.00300
C877        C  0.95939913  0.84744246  0.28652432    -0.11880
C878        C  0.95665515  0.89739233  0.28324494     0.02790
C879        C  0.95080870  0.92084115  0.32703801    -0.11300
H880        H  0.95028291  0.82119470  0.40852948     0.08380
H881        H  0.96653841  0.82903925  0.25380656     0.05910
H882        H  0.95257107  0.96015861  0.32566936     0.05760
O883        O  0.57708075  0.87637328  0.98844300    -0.80460
O884        O  0.94524267  0.96153654  0.22323507    -0.82020
O885        O  0.60954211  0.90985355  0.13910312    -0.79040
O886        O  0.97408803  0.82782920  0.11892694    -0.77420
O887        O  0.91299178  0.84872818  0.07207830    -0.79210
O888        O  0.64225731  0.98837189  0.12097844    -0.80150
O889        O  0.99210899  0.90075756  0.20194899    -0.81470
O890        O  0.55799231  0.84246721  0.06637470    -0.81760
Eu891      Eu  0.52433814  0.90457924  0.11461753     2.39200
O892        O  0.94579207  0.93292260  0.11792088    -0.89270
O893        O  0.57721284  0.95890916  0.06211483    -0.92870
C894        C  0.57385229  0.84025945  0.02166751     1.01820
C895        C  0.96555688  0.92219530  0.23334757     1.01630
C896        C  0.64516969  0.94360288  0.13614354     1.01580
C897        C  0.93461641  0.81754225  0.09882986     0.99440
H898        H  0.54074594  0.97855991  0.17343068     0.29190
O899        O  0.52761065  0.98236074  0.14220942    -1.01660
H900        H  0.99124044  0.87712607  0.02330312     0.29220
O901        O  0.99506017  0.90840892  0.03627049    -1.04200
O902        O  0.92456004  0.59668133  0.14070271    -0.81430
O903        O  0.55478905  0.50991433  0.40691515    -0.80960
O904        O  0.57601232  0.56433548  0.17433030    -0.79400
O905        O  0.84075406  0.93213810  0.08937935    -0.82740
O906        O  0.92281069  0.91124021  0.45413859    -0.80600
O907        O  0.65697585  0.54240216  0.04059627    -0.79240
O908        O  0.52288954  0.64395917  0.00832780    -0.80770
O909        O  0.88908131  0.56252141  0.48648319    -0.82690
O910        O  0.58301102  0.62492095  0.05726327    -0.79430
O911        O  0.85538641  0.98445762  0.00543678    -0.82100
O912        O  0.99812083  0.54514125  0.20826627    -0.77840
O913        O  0.63756057  0.99315358  0.48092436    -0.77870
O914        O  0.00144422  0.92920149  0.42186584    -0.77520
O915        O  0.86174917  0.97874889  0.15061451    -0.81010
O916        O  0.94236704  0.62914278  0.06208217    -0.80440
O917        O  0.00586314  0.56994974  0.42583692    -0.78760
Eu918      Eu  0.94920791  0.51151613  0.14632425     2.39770
Eu919      Eu  0.55037472  0.96069530  0.48408626     2.39570
Eu920      Eu  0.57990334  0.53772289  0.08998323     2.38400
Eu921      Eu  0.91738006  0.93609806  0.03929846     2.39880
Eu922      Eu  0.97352567  0.56680858  0.01310136     2.39790
O923        O  0.97163462  0.98869807  0.98644240    -0.93180
O924        O  0.00173146  0.56434380  0.09186974    -0.92070
C925        C  0.92730403  0.63216769  0.10681206     1.01990
C926        C  0.53385981  0.54859285  0.39566579     1.00710
C927        C  0.54289550  0.56099511  0.21048467     1.00100
C928        C  0.83053423  0.95211121  0.12886388     1.02110
C929        C  0.95674293  0.91400102  0.41874475     1.01030
C930        C  0.66795470  0.52126887  0.00200134     0.99880
C931        C  0.56165888  0.65513783  0.02920638     0.99930
C932        C  0.85305636  0.52919188  0.48963550     1.02550
H933        H  0.57449402  0.56171038  0.48899018     0.29920
O934        O  0.55262409  0.53982687  0.01095320    -1.05340
H935        H  0.89015045  0.52744287  0.07228603     0.31970
O936        O  0.92142757  0.51448175  0.06852704    -1.07900
C937        C  0.55539468  0.73437655  0.32813106    -0.02180
C938        C  0.53348142  0.69851040  0.30163765     0.07500
C939        C  0.48490439  0.70078429  0.28937774    -0.02290
C940        C  0.95832298  0.73850051  0.30439053    -0.02300
C941        C  0.98040125  0.77466846  0.33028797     0.07630
C942        C  0.52901056  0.77269511  0.34228792    -0.02490
Br943      Br  0.56101914  0.82350398  0.37555755    -0.01040
Br944      Br  0.62127269  0.72989862  0.34601999    -0.01110
Br945      Br  0.89172593  0.74195166  0.28820002    -0.01070
Br946      Br  0.95270259  0.65135961  0.25439372    -0.01060
C947        C  0.75678338  0.94025252  0.31333422    -0.02180
C948        C  0.73290028  0.96311423  0.27604538     0.07500
C949        C  0.72241878  0.51223624  0.27721813    -0.02290
C950        C  0.73639611  0.53846064  0.31570920    -0.02300
C951        C  0.76094617  0.51579141  0.35265802     0.07630
C952        C  0.77110240  0.96652161  0.35160427    -0.02490
Br953      Br  0.80205919  0.93325754  0.40349707    -0.01040
Br954      Br  0.77104797  0.87309276  0.31073763    -0.01110
Br955      Br  0.72112578  0.60526867  0.31878735    -0.01070
Br956      Br  0.69173311  0.54519503  0.22500931    -0.01060
C957        C  0.74820770  0.72495185  0.00975398    -0.02180
C958        C  0.71084798  0.74837153  0.03300574     0.07500
C959        C  0.71158329  0.75725613  0.08264765    -0.02290
C960        C  0.74996400  0.74283740  0.10869993    -0.02300
C961        C  0.78764375  0.72008056  0.08528871     0.07630
C962        C  0.78683611  0.71089253  0.03578994    -0.02490
Br963      Br  0.83967522  0.68179625  0.00228215    -0.01040
Br964      Br  0.74548056  0.71136069  0.44244646    -0.01110
Br965      Br  0.75210414  0.75531516  0.17638471    -0.01070
Br966      Br  0.65905010  0.78645314  0.11668439    -0.01060
C967        C  0.59299231  0.79399938  0.00955648     0.02800
C968        C  0.64357505  0.79415328  0.50468098    -0.13350
C969        C  0.66497335  0.75045551  0.51081128     0.00300
C970        C  0.63720198  0.70640794  0.51269671    -0.11880
C971        C  0.58682277  0.70440580  0.01751178     0.02790
C972        C  0.56402719  0.74867943  0.01632166    -0.11300
H973        H  0.66596011  0.82808759  0.50505654     0.08380
H974        H  0.65524902  0.67301994  0.51673217     0.05910
H975        H  0.52494272  0.74801658  0.02342846     0.05760
C976        C  0.90607654  0.67792105  0.61717469     0.02800
C977        C  0.85564084  0.67647623  0.61598072    -0.13350
C978        C  0.83360501  0.71941630  0.60744810     0.00300
C979        C  0.85984327  0.76412384  0.60716017    -0.11880
C980        C  0.91002239  0.76760642  0.60828294     0.02790
C981        C  0.93388805  0.72393544  0.61287637    -0.11300
H982        H  0.83455757  0.64201122  0.61414154     0.08380
H983        H  0.84105723  0.79679220  0.60104901     0.05910
H984        H  0.97323685  0.72555716  0.61011982     0.05760
C985        C  0.69100639  0.93291902  0.65716393     0.02800
C986        C  0.68958077  0.93267632  0.70771903    -0.13350
C987        C  0.73247482  0.94129661  0.72991551     0.00210
C988        C  0.77720818  0.94258045  0.70359741    -0.11880
C989        C  0.78065134  0.94238678  0.65335708     0.02790
C990        C  0.73698641  0.93809449  0.62938733    -0.11300
H991        H  0.65507721  0.93370899  0.72889211     0.08380
H992        H  0.80987815  0.94871317  0.72243251     0.05910
H993        H  0.73857104  0.94168389  0.59003857     0.05760
C994        C  0.80676153  0.54108460  0.97035256     0.02800
C995        C  0.80674159  0.54491694  0.91976696    -0.13350
C996        C  0.76300771  0.53795856  0.89852544     0.00300
C997        C  0.71903032  0.53608273  0.92629531    -0.11880
C998        C  0.71717208  0.53258257  0.97667510     0.02790
C999        C  0.76153568  0.53464840  0.49940539    -0.11300
H1000       H  0.84064602  0.54449857  0.89742797     0.08380
H1001       H  0.68561202  0.53138037  0.90834263     0.05910
H1002       H  0.76103096  0.52838727  0.53856910     0.05760
C1003       C  0.55525905  0.57984763  0.75688798     0.02800
C1004       C  0.54724960  0.55094171  0.80217585    -0.13350
C1005       C  0.54570432  0.57374328  0.84642987     0.00300
C1006       C  0.55089669  0.62410416  0.84441823    -0.11880
C1007       C  0.55462623  0.65198335  0.80027780     0.02790
C1008       C  0.56171000  0.63040868  0.75675858    -0.11300
H1009       H  0.53952253  0.51191809  0.80277358     0.08380
H1010       H  0.54620946  0.64213078  0.87774142     0.05910
H1011       H  0.56289280  0.65285899  0.72268319     0.05760
C1012       C  0.94663350  0.89276233  0.87290795     0.02800
C1013       C  0.94882524  0.84242697  0.87408770    -0.13350
C1014       C  0.95864042  0.82086798  0.83108897     0.00300
C1015       C  0.95939914  0.84744245  0.78652434    -0.11880
C1016       C  0.95665515  0.89739232  0.78324495     0.02790
C1017       C  0.95080871  0.92084115  0.82703801    -0.11300
H1018       H  0.95028295  0.82119472  0.90852949     0.08380
H1019       H  0.96653840  0.82903923  0.75380657     0.05910
H1020       H  0.95257107  0.96015861  0.82566936     0.05760
O1021       O  0.57708076  0.87637326  0.48844304    -0.80460
O1022       O  0.94524266  0.96153652  0.72323507    -0.82020
O1023       O  0.60954210  0.90985356  0.63910315    -0.79040
O1024       O  0.97408803  0.82782918  0.61892698    -0.77420
O1025       O  0.91299176  0.84872813  0.57207835    -0.79210
O1026       O  0.64225730  0.98837190  0.62097846    -0.80150
O1027       O  0.99210899  0.90075754  0.70194900    -0.81470
O1028       O  0.55799233  0.84246721  0.56637474    -0.81760
Eu1029     Eu  0.52433813  0.90457924  0.61461754     2.39200
O1030       O  0.94579206  0.93292257  0.61792090    -0.89270
O1031       O  0.57721283  0.95890916  0.56211484    -0.92870
C1032       C  0.57385231  0.84025944  0.52166755     1.01820
C1033       C  0.96555688  0.92219529  0.73334758     1.01630
C1034       C  0.64516967  0.94360289  0.63614356     1.01580
C1035       C  0.93461641  0.81754222  0.59882992     0.99440
H1036       H  0.54074593  0.97855992  0.67343069     0.29190
O1037       O  0.52761064  0.98236075  0.64220942    -1.01660
H1038       H  0.99124044  0.87712603  0.52330315     0.29220
O1039       O  0.99506016  0.90840888  0.53627051    -1.04200
O1040       O  0.92456005  0.59668130  0.64070273    -0.81430
O1041       O  0.55478904  0.50991432  0.90691515    -0.80960
O1042       O  0.57601232  0.56433547  0.67433030    -0.79400
O1043       O  0.84075404  0.93213807  0.58937938    -0.82740
O1044       O  0.92281070  0.91124025  0.95413858    -0.80600
O1045       O  0.65697586  0.54240214  0.54059628    -0.79240
O1046       O  0.52288958  0.64395918  0.50832780    -0.80770
O1047       O  0.88908130  0.56252142  0.98648318    -0.82690
O1048       O  0.58301104  0.62492093  0.55726327    -0.79430
O1049       O  0.85538639  0.98445756  0.50543680    -0.82100
O1050       O  0.99812083  0.54514123  0.70826627    -0.77840
O1051       O  0.63756058  0.99315362  0.98092435    -0.77870
O1052       O  0.00144424  0.92920151  0.92186583    -0.77520
O1053       O  0.86174916  0.97874887  0.65061452    -0.81010
O1054       O  0.94236705  0.62914277  0.56208220    -0.80440
O1055       O  0.00586315  0.56994975  0.92583691    -0.78760
Eu1056     Eu  0.94920792  0.51151610  0.64632425     2.39770
Eu1057     Eu  0.55037474  0.96069533  0.98408625     2.39570
Eu1058     Eu  0.57990335  0.53772288  0.58998324     2.38400
Eu1059     Eu  0.91738004  0.93609801  0.53929848     2.39880
Eu1060     Eu  0.97352567  0.56680857  0.51310137     2.39790
O1061       O  0.97163460  0.98869803  0.48644242    -0.93180
O1062       O  0.00173146  0.56434378  0.59186975    -0.92070
C1063       C  0.92730404  0.63216766  0.60681210     1.01990
C1064       C  0.53385980  0.54859284  0.89566579     1.00710
C1065       C  0.54289550  0.56099511  0.71048467     1.00100
C1066       C  0.83053421  0.95211118  0.62886390     1.02110
C1067       C  0.95674295  0.91400104  0.91874474     1.01030
C1068       C  0.66795470  0.52126886  0.50200135     0.99880
C1069       C  0.56165891  0.65513783  0.52920639     0.99930
C1070       C  0.85305636  0.52919189  0.98963549     1.02550
H1071       H  0.57449401  0.56171038  0.98899018     0.29920
O1072       O  0.55262409  0.53982687  0.51095321    -1.05340
H1073       H  0.89015045  0.52744285  0.57228604     0.31970
O1074       O  0.92142757  0.51448173  0.56852704    -1.07900
C1075       C  0.55539465  0.73437655  0.82813106    -0.02180
C1076       C  0.53348139  0.69851040  0.80163767     0.07500
C1077       C  0.48490436  0.70078429  0.78937776    -0.02290
C1078       C  0.95832298  0.73850050  0.80439057    -0.02300
C1079       C  0.98040126  0.77466846  0.83028799     0.07630
C1080       C  0.52901055  0.77269512  0.84228792    -0.02490
Br1081     Br  0.56101913  0.82350399  0.87555753    -0.01040
Br1082     Br  0.62127267  0.72989862  0.84601999    -0.01110
Br1083     Br  0.89172592  0.74195165  0.78820010    -0.01070
Br1084     Br  0.95270257  0.65135960  0.75439376    -0.01060
C1085       C  0.75678340  0.94025259  0.81333423    -0.02180
C1086       C  0.73290029  0.96311429  0.77604540     0.07500
C1087       C  0.72241878  0.51223625  0.77721812    -0.02290
C1088       C  0.73639611  0.53846065  0.81570920    -0.02300
C1089       C  0.76094617  0.51579142  0.85265802     0.07630
C1090       C  0.77110242  0.96652169  0.85160427    -0.02490
Br1091     Br  0.80205925  0.93325764  0.90349706    -0.01040
Br1092     Br  0.77104798  0.87309283  0.81073766    -0.01110
Br1093     Br  0.72112576  0.60526868  0.81878734    -0.01070
Br1094     Br  0.69173312  0.54519504  0.72500930    -0.01060
C1095       C  0.74820775  0.72495191  0.50975418    -0.02180
C1096       C  0.71084799  0.74837150  0.53300597     0.07500
C1097       C  0.71158325  0.75725601  0.58264791    -0.02290
C1098       C  0.74996395  0.74283729  0.60870018    -0.02300
C1099       C  0.78764376  0.72008053  0.58528894     0.07630
C1100       C  0.78683617  0.71089259  0.53579014    -0.02490
Br1101     Br  0.83967534  0.68179643  0.50228232    -0.01040
Br1102     Br  0.74548043  0.71136048  0.94244631    -0.01110
Br1103     Br  0.75210404  0.75531493  0.67638500    -0.01070
Br1104     Br  0.65904997  0.78645288  0.61668467    -0.01060
loop_ 
_geom_bond_atom_site_label_1 
_geom_bond_atom_site_label_2 
_geom_bond_distance 
_geom_bond_site_symmetry_2 
_ccdc_geom_bond_type 
C1            C6   1.427       .  A
C1          C140   1.396       .  A
C1          C204   1.475       .  S
C2            C3   1.392       .  A
C2          C139   1.396       .  A
C2            H7   1.085       .  S
C3            C4   1.385       .  A
C3          C130   1.455       .  S
C4          C143   1.387       .  A
C4            H8   1.086       .  S
C5            C6   1.420       .  A
C5          C142   1.387       .  A
C5          C241   1.483       .  S
C6            H9   1.083       .  S
C10          C11   1.396       .  A
C10          C15   1.428       .  A
C10          C97   1.475       .  S
C11          C12   1.389       .  A
C11          H16   1.085       .  S
C12          C13   1.384       .  A
C12         C133   1.454       .  S
C13          C14   1.387       .  A
C13          H17   1.086       .  S
C14          C15   1.423       .  A
C14          C69   1.487       .  S
C15          H18   1.083       .  S
C19          C20   1.396       .  A
C19          C24   1.427       .  A
C19          C68   1.476       .  S
C20          C21   1.390       .  A
C20          H25   1.085       .  S
C21          C22   1.385       .  A
C21         C120   1.454       .  S
C22          C23   1.387       .  A
C22          H26   1.086       .  S
C23          C24   1.423       .  A
C23         C100   1.487       .  S
C24          H27   1.083       .  S
C28          C29   1.396       .  A
C28         C171   1.427       .  A
C28         C104   1.475       .  S
C29          C30   1.391       .  A
C29          H34   1.085       .  S
C30          C31   1.385       .  A
C30         C123   1.455       .  S
C31          C32   1.387       .  A
C31          H35   1.086       .  S
C32         C171   1.420       .  A
C32         C240   1.483       .  S
C33         C166   1.427       .  A
C33         C170   1.420       .  A
C33          H36   1.083   1_556  S
C37          C38   1.426       .  A
C37          C42   1.396       .  A
C37          C99   1.477       .  S
C38          C39   1.420       .  A
C38          H43   1.083       .  S
C39          C40   1.386       .  A
C39          C98   1.483       .  S
C40          C41   1.386       .  A
C40          H44   1.086       .  S
C41          C42   1.393       .  A
C41         C110   1.457       .  S
C42          H45   1.085       .  S
C46          C47   1.397       .  A
C46          C51   1.428       .  A
C46         C101   1.475       .  S
C47          C48   1.390       .  A
C47          H52   1.085       .  S
C48          C49   1.384       .  A
C48         C113   1.456       .  S
C49          C50   1.387       .  A
C49          H53   1.086       .  S
C50          C51   1.423       .  A
C50          C67   1.488       .  S
C51          H54   1.083       .  S
O55          C66   1.298   1_556  A
O55        Eu229   2.499       .  S
O56          C67   1.285       .  A
O56        Eu366   2.437       .  S
O57          C68   1.298       .  A
O57         Eu63   2.499       .  S
O58          C69   1.285       .  A
O58        Eu615   2.436       .  S
O59          C69   1.304       .  A
O59         Eu93   2.506       .  S
O60          C68   1.288       .  A
O60        Eu368   2.447       .  S
O61          C67   1.303       .  A
O61        Eu615   2.504       .  S
O62          C66   1.289       .  A
O62         Eu63   2.454       .  S
Eu63        O610   2.436   1_455  S
Eu63        O613   2.504   1_455  S
Eu63         O65   2.348       .  S
Eu63         O71   2.337       .  S
Eu63        O625   2.369   1_455  S
Eu63        O616   2.365   1_455  S
O64         Eu93   2.366       .  S
O64        Eu615   2.365       .  S
O64        Eu366   2.367       .  S
O65        Eu229   2.334   1_554  S
O65        Eu368   2.367       .  S
C66         C139   1.475       .  S
H70          O71   0.964       .  S
O71        Eu368   2.351       .  S
O71        Eu918   2.371   1_455  S
H72          O73   0.964       .  S
O73         Eu93   2.335       .  S
O73        Eu615   2.369       .  S
O73        Eu781   2.350   1_554  S
O74          C97   1.298       .  A
O74         Eu90   2.501       .  S
O75          C98   1.285       .  A
O75        Eu367   2.432   1_545  S
O76          C99   1.298       .  A
O76         Eu92   2.499       .  S
O77         C100   1.285       .  A
O77         Eu93   2.434       .  S
O78         C101   1.298       .  A
O78        Eu231   2.503       .  S
O79         C102   1.285       .  A
O79         Eu92   2.434       .  S
O80         C103   1.285       .  A
O80        Eu646   2.433   1_455  S
O81         C104   1.298       .  A
O81        Eu232   2.499       .  S
O82         C103   1.303       .  A
O82         Eu92   2.504       .  S
O83         C518   1.289   1_554  A
O83         Eu93   2.453       .  S
O84         C651   1.289       .  A
O84         Eu90   2.457       .  S
O85         C516   1.302       .  A
O85         Eu91   2.501       .  S
O86         C101   1.287       .  A
O86        Eu643   2.441       .  S
O87         C100   1.304       .  A
O87        Eu366   2.509       .  S
O88          C97   1.287       .  A
O88         Eu94   2.444       .  S
O89         C650   1.303       .  A
O89        Eu232   2.504       .  S
Eu90        O332   2.437   1_545  S
Eu90        O363   2.509   1_545  S
Eu90        O108   2.338       .  S
Eu90         O96   2.349       .  S
Eu90        O340   2.367   1_545  S
Eu90        O899   2.371   1_545  S
Eu91        O193   2.499       .  S
Eu91        O351   2.432       .  S
Eu91        O638   2.441       .  S
Eu91        O203   2.334       .  S
Eu91        O763   2.350   1_455  S
Eu91        O785   2.367   1_455  S
Eu91        O520   2.364       .  S
Eu92        O336   2.447   1_545  S
Eu92        O106   2.365       .  S
Eu92        O341   2.367   1_545  S
Eu92        O347   2.351   1_545  S
Eu92        O648   2.337       .  S
Eu93        O216   2.503   1_554  S
Eu93         O95   2.348   1_554  S
Eu93        O384   2.371       .  S
Eu94        O632   2.433       .  S
Eu94        O219   2.499   1_554  S
Eu94        O227   2.504   1_554  S
Eu94        O108   2.351       .  S
Eu94         O96   2.368       .  S
Eu94        O371   2.336   1_544  S
Eu94        O658   2.365       .  S
O95        Eu781   2.367       .  S
O95        Eu370   2.336   1_556  S
O96        Eu644   2.337       .  S
C98         O641   1.303       .  A
C99         O636   1.289   1_455  A
C102        C170   1.483   1_554  S
C102        O499   1.302   1_544  A
C103        C143   1.483       .  S
C104        O497   1.289   1_545  A
H105        O244   0.966       .  S
O106       Eu505   2.364   1_544  S
O106       Eu646   2.365   1_455  S
O106        H243   0.966   1_554  S
H107        O108   0.964       .  S
O108       Eu369   2.371   1_545  S
C109        C110   1.406       .  A
C109        C114   1.397       .  A
C109       Br116   1.935       .  S
C110        C111   1.416   1_455  A
C111        C664   1.394       .  A
C111       Br670   1.936       .  S
C112        C113   1.404       .  A
C112        C663   1.394       .  A
C112       Br117   1.937       .  S
C113        C666   1.414       .  A
C114        C665   1.414   1_455  A
C114       Br115   1.934       .  S
Br118       C663   1.936       .  S
C119        C120   1.403       .  A
C119        C124   1.395       .  A
C119       Br126   1.935       .  S
C120        C397   1.414       .  A
C121        C122   1.396       .  A
C121        C396   1.414   1_545  A
C121       Br128   1.934       .  S
C122        C123   1.404       .  A
C122       Br127   1.935       .  S
C123        C400   1.415   1_545  A
C124        C399   1.415       .  A
C124       Br125   1.936       .  S
C129        C130   1.404       .  A
C129        C134   1.397       .  A
C129       Br274   1.934   1_554  S
C130        C131   1.416       .  A
C131        C132   1.394       .  A
C131       Br138   1.936       .  S
C132        C133   1.402       .  A
C132       Br137   1.935       .  S
C133        C134   1.414       .  A
C134       Br135   1.934       .  S
Br136       C267   1.934       .  S
C139        C144   1.427       .  A
C140        C141   1.392       .  A
C140        H145   1.085       .  S
C141        C142   1.385       .  A
C141        C268   1.455       .  S
C142        H146   1.086       .  S
C143        C144   1.420       .  A
C144        H147   1.083       .  S
C148        C149   1.396       .  A
C148        C153   1.428       .  A
C148        C235   1.475       .  S
C149        C150   1.389       .  A
C149        H154   1.085       .  S
C150        C151   1.384       .  A
C150        C271   1.454       .  S
C151        C152   1.387       .  A
C151        H155   1.086       .  S
C152        C153   1.423       .  A
C152        C207   1.487       .  S
C153        H156   1.083       .  S
C157        C158   1.396       .  A
C157        C162   1.427       .  A
C157        C206   1.476       .  S
C158        C159   1.390       .  A
C158        H163   1.085       .  S
C159        C160   1.385       .  A
C159        C258   1.454       .  S
C160        C161   1.387       .  A
C160        H164   1.086       .  S
C161        C162   1.423       .  A
C161        C238   1.487       .  S
C162        H165   1.083       .  S
C166        C167   1.396       .  A
C166        C242   1.475       .  S
C167        C168   1.391       .  A
C167        H172   1.085       .  S
C168        C169   1.385       .  A
C168        C261   1.455       .  S
C169        C170   1.387       .  A
C169        H173   1.086       .  S
C171        H174   1.083       .  S
C175        C176   1.426       .  A
C175        C180   1.396       .  A
C175        C237   1.477       .  S
C176        C177   1.420       .  A
C176        H181   1.083       .  S
C177        C178   1.386       .  A
C177        C236   1.483       .  S
C178        C179   1.386       .  A
C178        H182   1.086       .  S
C179        C180   1.393       .  A
C179        C248   1.457       .  S
C180        H183   1.085       .  S
C184        C185   1.397       .  A
C184        C189   1.428       .  A
C184        C239   1.475       .  S
C185        C186   1.390       .  A
C185        H190   1.085       .  S
C186        C187   1.384       .  A
C186        C251   1.456       .  S
C187        C188   1.387       .  A
C187        H191   1.086       .  S
C188        C189   1.423       .  A
C188        C205   1.488       .  S
C189        H192   1.083       .  S
O193        C204   1.298       .  A
O194        C205   1.285       .  A
O194       Eu504   2.437       .  S
O195        C206   1.298       .  A
O195       Eu201   2.499       .  S
O196        C207   1.285       .  A
O196       Eu753   2.436       .  S
O197        C207   1.304       .  A
O197       Eu231   2.506       .  S
O198        C206   1.288       .  A
O198       Eu506   2.447       .  S
O199        C205   1.303       .  A
O199       Eu753   2.504       .  S
O200        C204   1.289       .  A
O200       Eu201   2.454       .  S
Eu201       O748   2.436   1_455  S
Eu201       O751   2.504   1_455  S
Eu201       O763   2.369   1_455  S
Eu201       O203   2.348       .  S
Eu201       O754   2.365   1_455  S
Eu201       O209   2.337       .  S
O202       Eu753   2.365       .  S
O202       Eu231   2.366       .  S
O202       Eu504   2.367       .  S
O203       Eu506   2.367       .  S
H208        O209   0.964       .  S
O209       Eu506   2.351       .  S
O209      Eu1056   2.371   1_455  S
H210        O211   0.964       .  S
O211       Eu753   2.369       .  S
O211       Eu643   2.350       .  S
O211       Eu231   2.335       .  S
O212        C235   1.298       .  A
O212       Eu228   2.501       .  S
O213        C236   1.285       .  A
O213       Eu505   2.432   1_545  S
O214        C237   1.298       .  A
O214       Eu230   2.499       .  S
O215        C238   1.285       .  A
O215       Eu231   2.434       .  S
O216        C239   1.298       .  A
O217        C240   1.285       .  A
O217       Eu230   2.434       .  S
O218        C241   1.285       .  A
O218       Eu784   2.433   1_455  S
O219        C242   1.298       .  A
O220        C241   1.303       .  A
O220       Eu230   2.504       .  S
O221        C380   1.289       .  A
O221       Eu231   2.453       .  S
O222        C789   1.289       .  A
O222       Eu228   2.457       .  S
O223        C378   1.302   1_556  A
O223       Eu229   2.501       .  S
O224        C239   1.287       .  A
O224       Eu781   2.441       .  S
O225        C238   1.304       .  A
O225       Eu504   2.509       .  S
O226        C235   1.287       .  A
O226       Eu232   2.444       .  S
O227        C788   1.303       .  A
Eu228       O470   2.437   1_545  S
Eu228       O501   2.509   1_545  S
Eu228       O478   2.367   1_545  S
Eu228      O1037   2.371   1_545  S
Eu228       O246   2.338       .  S
Eu228       O234   2.349       .  S
Eu229       O489   2.432       .  S
Eu229       O776   2.441       .  S
Eu229       O625   2.350   1_456  S
Eu229       O647   2.367   1_455  S
Eu229       O382   2.364   1_556  S
Eu230       O474   2.447   1_545  S
Eu230       O479   2.367   1_545  S
Eu230       O485   2.351   1_545  S
Eu230       O244   2.365       .  S
Eu230       O786   2.337       .  S
Eu231       O233   2.348       .  S
Eu231       O522   2.371       .  S
Eu232       O770   2.433       .  S
Eu232       O509   2.336   1_545  S
Eu232       O796   2.365       .  S
Eu232       O246   2.351       .  S
Eu232       O234   2.368       .  S
O233       Eu643   2.367       .  S
O233       Eu508   2.336       .  S
O234       Eu782   2.337       .  S
C236        O779   1.303       .  A
C237        O774   1.289   1_455  A
C240        O361   1.302   1_545  A
C242        O359   1.289   1_546  A
O244       Eu367   2.364   1_545  S
O244       Eu784   2.365   1_455  S
H245        O246   0.964       .  S
O246       Eu507   2.371   1_545  S
C247        C248   1.406       .  A
C247        C252   1.397       .  A
C247       Br254   1.935       .  S
C248        C249   1.416   1_455  A
C249        C802   1.394       .  A
C249       Br808   1.936       .  S
C250        C801   1.394       .  A
C250        C251   1.404       .  A
C250       Br255   1.937       .  S
C251        C804   1.414       .  A
C252        C803   1.414   1_455  A
C252       Br253   1.934       .  S
Br256       C801   1.936       .  S
C257        C258   1.403       .  A
C257        C262   1.395       .  A
C257       Br264   1.935       .  S
C258        C535   1.414       .  A
C259        C534   1.414   1_545  A
C259        C260   1.396       .  A
C259       Br266   1.934       .  S
C260        C261   1.404       .  A
C260       Br265   1.935       .  S
C261        C538   1.415   1_545  A
C262        C537   1.415       .  A
C262       Br263   1.936       .  S
C267        C268   1.404       .  A
C267        C272   1.397       .  A
C268        C269   1.416       .  A
C269        C270   1.394       .  A
C269       Br276   1.936       .  S
C270        C271   1.402       .  A
C270       Br275   1.935       .  S
C271        C272   1.414       .  A
C272       Br273   1.934       .  S
C277        C416   1.396       .  A
C277        C282   1.427       .  A
C277        C480   1.475       .  S
C278        C415   1.396       .  A
C278        C279   1.392       .  A
C278        H283   1.085       .  S
C279        C280   1.385       .  A
C279        C406   1.455       .  S
C280        C419   1.387       .  A
C280        H284   1.086       .  S
C281        C418   1.387       .  A
C281        C282   1.420       .  A
C281        C517   1.483       .  S
C282        H285   1.083       .  S
C286        C287   1.396       .  A
C286        C291   1.428       .  A
C286        C373   1.475       .  S
C287        C288   1.389       .  A
C287        H292   1.085       .  S
C288        C289   1.384       .  A
C288        C409   1.454       .  S
C289        C290   1.387       .  A
C289        H293   1.086       .  S
C290        C291   1.423       .  A
C290        C345   1.487       .  S
C291        H294   1.083       .  S
C295        C296   1.396       .  A
C295        C300   1.427       .  A
C295        C344   1.476       .  S
C296        C297   1.390       .  A
C296        H301   1.085       .  S
C297        C298   1.385       .  A
C297        C396   1.454       .  S
C298        C299   1.387       .  A
C298        H302   1.086       .  S
C299        C300   1.423       .  A
C299        C376   1.487       .  S
C300        H303   1.083       .  S
C304        C305   1.396       .  A
C304        C447   1.427       .  A
C304        C380   1.475       .  S
C305        C306   1.391       .  A
C305        H310   1.085       .  S
C306        C307   1.385       .  A
C306        C399   1.455       .  S
C307        C308   1.387       .  A
C307        H311   1.086       .  S
C308        C447   1.420       .  A
C308        C516   1.483       .  S
C309        C442   1.427       .  A
C309        C446   1.420       .  A
C309        H312   1.083   1_556  S
C313        C314   1.426       .  A
C313        C318   1.396       .  A
C313        C375   1.477       .  S
C314        C315   1.420       .  A
C314        H319   1.083       .  S
C315        C316   1.386       .  A
C315        C374   1.483       .  S
C316        C317   1.386       .  A
C316        H320   1.086       .  S
C317        C318   1.393       .  A
C317        C386   1.457       .  S
C318        H321   1.085       .  S
C322        C323   1.397       .  A
C322        C327   1.428       .  A
C322        C377   1.475       .  S
C323        C324   1.390       .  A
C323        H328   1.085       .  S
C324        C325   1.384       .  A
C324        C389   1.456       .  S
C325        C326   1.387       .  A
C325        H329   1.086       .  S
C326        C327   1.423       .  A
C326        C343   1.488       .  S
C327        H330   1.083       .  S
O331        C342   1.298   1_556  A
O331       Eu505   2.499       .  S
O332        C343   1.285       .  A
O333        C344   1.298       .  A
O333       Eu339   2.499       .  S
O334        C345   1.285       .  A
O334       Eu891   2.436       .  S
O335        C345   1.304       .  A
O335       Eu369   2.506       .  S
O336        C344   1.288       .  A
O337        C343   1.303       .  A
O337       Eu891   2.504       .  S
O338        C342   1.289       .  A
O338       Eu339   2.454       .  S
Eu339       O886   2.436   1_455  S
Eu339       O889   2.504   1_455  S
Eu339       O901   2.369   1_455  S
Eu339       O341   2.348       .  S
Eu339       O892   2.365   1_455  S
Eu339       O347   2.337       .  S
O340       Eu891   2.365       .  S
O340       Eu369   2.366       .  S
O341       Eu505   2.334   1_554  S
C342        C415   1.475       .  S
H346        O347   0.964       .  S
O347       Eu642   2.371   1_465  S
H348        O349   0.964       .  S
O349       Eu891   2.369       .  S
O349      Eu1057   2.350   1_554  S
O349       Eu369   2.335       .  S
O350        C373   1.298       .  A
O350       Eu366   2.501       .  S
O351        C374   1.285       .  A
O352        C375   1.298       .  A
O352       Eu368   2.499       .  S
O353        C376   1.285       .  A
O353       Eu369   2.434       .  S
O354        C377   1.298       .  A
O354       Eu507   2.503       .  S
O355        C378   1.285       .  A
O355       Eu368   2.434       .  S
O356        C379   1.285       .  A
O356       Eu922   2.433   1_455  S
O357        C380   1.298       .  A
O357       Eu508   2.499       .  S
O358        C379   1.303       .  A
O358       Eu368   2.504       .  S
O359       Eu369   2.453       .  S
O360        C927   1.289       .  A
O360       Eu366   2.457       .  S
O361       Eu367   2.501       .  S
O362        C377   1.287       .  A
O362       Eu919   2.441       .  S
O363        C376   1.304       .  A
O364        C373   1.287       .  A
O364       Eu370   2.444       .  S
O365        C926   1.303       .  A
O365       Eu508   2.504       .  S
Eu366       O623   2.371       .  S
Eu366       O384   2.338       .  S
Eu366       O372   2.349       .  S
Eu367       O469   2.499       .  S
Eu367       O914   2.441       .  S
Eu367       O479   2.334       .  S
Eu367      O1039   2.350   1_455  S
Eu367      O1061   2.367   1_455  S
Eu368       O382   2.365       .  S
Eu368       O924   2.337       .  S
Eu369       O492   2.503   1_554  S
Eu369       O371   2.348   1_554  S
Eu370       O908   2.433       .  S
Eu370       O495   2.499   1_554  S
Eu370       O503   2.504   1_554  S
Eu370       O934   2.365       .  S
Eu370       O384   2.351       .  S
Eu370       O372   2.368       .  S
O371      Eu1057   2.367       .  S
O372       Eu920   2.337       .  S
C374        O917   1.303       .  A
C375        O912   1.289   1_455  A
C378        C446   1.483   1_554  S
C379        C419   1.483       .  S
H381        O520   0.966       .  S
O382       Eu922   2.365   1_455  S
O382        H519   0.966   1_554  S
H383        O384   0.964       .  S
C385        C386   1.406       .  A
C385        C390   1.397       .  A
C385       Br392   1.935       .  S
C386        C387   1.416   1_455  A
C387        C940   1.394       .  A
C387       Br946   1.936       .  S
C388        C939   1.394       .  A
C388        C389   1.404       .  A
C388       Br393   1.937       .  S
C389        C942   1.414       .  A
C390        C941   1.414   1_455  A
C390       Br391   1.934       .  S
Br394       C939   1.936       .  S
C395        C396   1.403       .  A
C395        C400   1.395       .  A
C395       Br402   1.935       .  S
C397        C398   1.396       .  A
C397       Br404   1.934       .  S
C398        C399   1.404       .  A
C398       Br403   1.935       .  S
C400       Br401   1.936       .  S
C405        C406   1.404       .  A
C405        C410   1.397       .  A
C405       Br550   1.934   1_554  S
C406        C407   1.416       .  A
C407        C408   1.394       .  A
C407       Br414   1.936       .  S
C408        C409   1.402       .  A
C408       Br413   1.935       .  S
C409        C410   1.414       .  A
C410       Br411   1.934       .  S
Br412       C543   1.934       .  S
C415        C420   1.427       .  A
C416        C417   1.392       .  A
C416        H421   1.085       .  S
C417        C418   1.385       .  A
C417        C544   1.455       .  S
C418        H422   1.086       .  S
C419        C420   1.420       .  A
C420        H423   1.083       .  S
C424        C425   1.396       .  A
C424        C429   1.428       .  A
C424        C511   1.475       .  S
C425        C426   1.389       .  A
C425        H430   1.085       .  S
C426        C427   1.384       .  A
C426        C547   1.454       .  S
C427        C428   1.387       .  A
C427        H431   1.086       .  S
C428        C429   1.423       .  A
C428        C483   1.487       .  S
C429        H432   1.083       .  S
C433        C434   1.396       .  A
C433        C438   1.427       .  A
C433        C482   1.476       .  S
C434        C435   1.390       .  A
C434        H439   1.085       .  S
C435        C436   1.385       .  A
C435        C534   1.454       .  S
C436        C437   1.387       .  A
C436        H440   1.086       .  S
C437        C438   1.423       .  A
C437        C514   1.487       .  S
C438        H441   1.083       .  S
C442        C443   1.396       .  A
C442        C518   1.475       .  S
C443        C444   1.391       .  A
C443        H448   1.085       .  S
C444        C445   1.385       .  A
C444        C537   1.455       .  S
C445        C446   1.387       .  A
C445        H449   1.086       .  S
C447        H450   1.083       .  S
C451        C452   1.426       .  A
C451        C456   1.396       .  A
C451        C513   1.477       .  S
C452        C453   1.420       .  A
C452        H457   1.083       .  S
C453        C454   1.386       .  A
C453        C512   1.483       .  S
C454        C455   1.386       .  A
C454        H458   1.086       .  S
C455        C456   1.393       .  A
C455        C524   1.457       .  S
C456        H459   1.085       .  S
C460        C461   1.397       .  A
C460        C465   1.428       .  A
C460        C515   1.475       .  S
C461        C462   1.390       .  A
C461        H466   1.085       .  S
C462        C463   1.384       .  A
C462        C527   1.456       .  S
C463        C464   1.387       .  A
C463        H467   1.086       .  S
C464        C465   1.423       .  A
C464        C481   1.488       .  S
C465        H468   1.083       .  S
O469        C480   1.298       .  A
O470        C481   1.285       .  A
O471        C482   1.298       .  A
O471       Eu477   2.499       .  S
O472        C483   1.285       .  A
O472      Eu1029   2.436       .  S
O473        C483   1.304       .  A
O473       Eu507   2.506       .  S
O474        C482   1.288       .  A
O475        C481   1.303       .  A
O475      Eu1029   2.504       .  S
O476        C480   1.289       .  A
O476       Eu477   2.454       .  S
Eu477      O1024   2.436   1_455  S
Eu477      O1027   2.504   1_455  S
Eu477      O1039   2.369   1_455  S
Eu477       O479   2.348       .  S
Eu477      O1030   2.365   1_455  S
Eu477       O485   2.337       .  S
O478      Eu1029   2.365       .  S
O478       Eu507   2.366       .  S
H484        O485   0.964       .  S
O485       Eu780   2.371   1_465  S
H486        O487   0.964       .  S
O487      Eu1029   2.369       .  S
O487       Eu919   2.350       .  S
O487       Eu507   2.335       .  S
O488        C511   1.298       .  A
O488       Eu504   2.501       .  S
O489        C512   1.285       .  A
O490        C513   1.298       .  A
O490       Eu506   2.499       .  S
O491        C514   1.285       .  A
O491       Eu507   2.434       .  S
O492        C515   1.298       .  A
O493        C516   1.285       .  A
O493       Eu506   2.434       .  S
O494        C517   1.285       .  A
O494      Eu1060   2.433   1_455  S
O495        C518   1.298       .  A
O496        C517   1.303       .  A
O496       Eu506   2.504       .  S
O497       Eu507   2.453       .  S
O498       C1065   1.289       .  A
O498       Eu504   2.457       .  S
O499       Eu505   2.501       .  S
O500        C515   1.287       .  A
O500      Eu1057   2.441       .  S
O501        C514   1.304       .  A
O502        C511   1.287       .  A
O502       Eu508   2.444       .  S
O503       C1064   1.303       .  A
Eu504       O761   2.371       .  S
Eu504       O522   2.338       .  S
Eu504       O510   2.349       .  S
Eu505      O1052   2.441       .  S
Eu505       O901   2.350   1_456  S
Eu505       O923   2.367   1_455  S
Eu506       O520   2.365       .  S
Eu506      O1062   2.337       .  S
Eu507       O509   2.348       .  S
Eu508      O1046   2.433       .  S
Eu508      O1072   2.365       .  S
Eu508       O522   2.351       .  S
Eu508       O510   2.368       .  S
O509       Eu919   2.367       .  S
O510      Eu1058   2.337       .  S
C512       O1055   1.303       .  A
C513       O1050   1.289   1_455  A
O520      Eu1060   2.365   1_455  S
H521        O522   0.964       .  S
C523        C524   1.406       .  A
C523        C528   1.397       .  A
C523       Br530   1.935       .  S
C524        C525   1.416   1_455  A
C525       C1078   1.394       .  A
C525      Br1084   1.936       .  S
C526       C1077   1.394       .  A
C526        C527   1.404       .  A
C526       Br531   1.937       .  S
C527       C1080   1.414       .  A
C528       C1079   1.414   1_455  A
C528       Br529   1.934       .  S
Br532      C1077   1.936       .  S
C533        C534   1.403       .  A
C533        C538   1.395       .  A
C533       Br540   1.935       .  S
C535        C536   1.396       .  A
C535       Br542   1.934       .  S
C536        C537   1.404       .  A
C536       Br541   1.935       .  S
C538       Br539   1.936       .  S
C543        C544   1.404       .  A
C543        C548   1.397       .  A
C544        C545   1.416       .  A
C545        C546   1.394       .  A
C545       Br552   1.936       .  S
C546        C547   1.402       .  A
C546       Br551   1.935       .  S
C547        C548   1.414       .  A
C548       Br549   1.934       .  S
C553        C692   1.396       .  A
C553        C558   1.427       .  A
C553        C756   1.475       .  S
C554        C691   1.396       .  A
C554        C555   1.392       .  A
C554        H559   1.085       .  S
C555        C556   1.385       .  A
C555        C682   1.455       .  S
C556        C695   1.387       .  A
C556        H560   1.086       .  S
C557        C694   1.387       .  A
C557        C558   1.420       .  A
C557        C793   1.483       .  S
C558        H561   1.083       .  S
C562        C563   1.396       .  A
C562        C567   1.428       .  A
C562        C649   1.475       .  S
C563        C564   1.389       .  A
C563        H568   1.085       .  S
C564        C565   1.384       .  A
C564        C685   1.454       .  S
C565        C566   1.387       .  A
C565        H569   1.086       .  S
C566        C567   1.423       .  A
C566        C621   1.487       .  S
C567        H570   1.083       .  S
C571        C572   1.396       .  A
C571        C576   1.427       .  A
C571        C620   1.476       .  S
C572        C573   1.390       .  A
C572        H577   1.085       .  S
C573        C574   1.385       .  A
C573        C672   1.454       .  S
C574        C575   1.387       .  A
C574        H578   1.086       .  S
C575        C576   1.423       .  A
C575        C652   1.487       .  S
C576        H579   1.083       .  S
C580        C581   1.396       .  A
C580        C723   1.427       .  A
C580        C656   1.475       .  S
C581        C582   1.391       .  A
C581        H586   1.085       .  S
C582        C583   1.385       .  A
C582        C675   1.455       .  S
C583        C584   1.387       .  A
C583        H587   1.086       .  S
C584        C723   1.420       .  A
C584        C792   1.483       .  S
C585        C718   1.427       .  A
C585        C722   1.420       .  A
C585        H588   1.083   1_556  S
C589        C590   1.426       .  A
C589        C594   1.396       .  A
C589        C651   1.477       .  S
C590        C591   1.420       .  A
C590        H595   1.083       .  S
C591        C592   1.386       .  A
C591        C650   1.483       .  S
C592        C593   1.386       .  A
C592        H596   1.086       .  S
C593        C594   1.393       .  A
C593        C662   1.457       .  S
C594        H597   1.085       .  S
C598        C599   1.397       .  A
C598        C603   1.428       .  A
C598        C653   1.475       .  S
C599        C600   1.390       .  A
C599        H604   1.085       .  S
C600        C601   1.384       .  A
C600        C665   1.456       .  S
C601        C602   1.387       .  A
C601        H605   1.086       .  S
C602        C603   1.423       .  A
C602        C619   1.488       .  S
C603        H606   1.083       .  S
O607        C618   1.298   1_556  A
O607       Eu781   2.499       .  S
O608        C619   1.285       .  A
O608       Eu918   2.437       .  S
O609        C620   1.298       .  A
O609       Eu615   2.499       .  S
O610        C621   1.285       .  A
O611        C621   1.304       .  A
O611       Eu645   2.506       .  S
O612        C620   1.288       .  A
O612       Eu920   2.447       .  S
O613        C619   1.303       .  A
O614        C618   1.289       .  A
O614       Eu615   2.454       .  S
Eu615       O617   2.348       .  S
Eu615       O623   2.337       .  S
O616       Eu645   2.366       .  S
O616       Eu918   2.367       .  S
O617       Eu781   2.334   1_554  S
O617       Eu920   2.367       .  S
C618        C691   1.475       .  S
H622        O623   0.964       .  S
O623       Eu920   2.351       .  S
H624        O625   0.964       .  S
O625       Eu645   2.335       .  S
O626        C649   1.298       .  A
O626       Eu642   2.501       .  S
O627        C650   1.285       .  A
O627       Eu919   2.432   1_545  S
O628        C651   1.298       .  A
O628       Eu644   2.499       .  S
O629        C652   1.285       .  A
O629       Eu645   2.434       .  S
O630        C653   1.298       .  A
O630       Eu783   2.503       .  S
O631        C654   1.285       .  A
O631       Eu644   2.434       .  S
O632        C655   1.285       .  A
O633        C656   1.298       .  A
O633       Eu784   2.499       .  S
O634        C655   1.303       .  A
O634       Eu644   2.504       .  S
O635       C1070   1.289   1_554  A
O635       Eu645   2.453       .  S
O636       Eu642   2.457       .  S
O637       C1068   1.302       .  A
O637       Eu643   2.501       .  S
O638        C653   1.287   1_455  A
O639        C652   1.304       .  A
O639       Eu918   2.509       .  S
O640        C649   1.287       .  A
O640       Eu646   2.444       .  S
O641       Eu784   2.504   1_455  S
Eu642       O884   2.437   1_545  S
Eu642       O915   2.509   1_545  S
Eu642       O892   2.367   1_545  S
Eu642       O660   2.338       .  S
Eu642       O648   2.349   1_655  S
Eu643       O745   2.499       .  S
Eu643       O903   2.432       .  S
Eu643       O755   2.334       .  S
Eu643      O1072   2.364       .  S
Eu644       O888   2.447   1_545  S
Eu644       O893   2.367   1_545  S
Eu644       O899   2.351   1_545  S
Eu644       O658   2.365       .  S
Eu645       O768   2.503   1_554  S
Eu645       O647   2.348   1_554  S
Eu645       O936   2.371       .  S
Eu646       O771   2.499   1_554  S
Eu646       O779   2.504   1_654  S
Eu646       O923   2.336   1_544  S
Eu646       O660   2.351       .  S
Eu646       O648   2.368   1_655  S
O647       Eu922   2.336   1_556  S
C654        C722   1.483   1_554  S
C654       O1051   1.302   1_544  A
C655        C695   1.483       .  S
C656       O1049   1.289   1_545  A
H657        O796   0.966       .  S
O658      Eu1057   2.364   1_544  S
O658        H795   0.966   1_554  S
H659        O660   0.964       .  S
O660       Eu921   2.371   1_545  S
C661        C662   1.406       .  A
C661        C666   1.397       .  A
C661       Br668   1.935       .  S
C662        C663   1.416       .  A
C664        C665   1.404       .  A
C664       Br669   1.937       .  S
C666       Br667   1.934       .  S
C671        C672   1.403       .  A
C671        C676   1.395       .  A
C671       Br678   1.935       .  S
C672        C949   1.414       .  A
C673        C948   1.414   1_545  A
C673        C674   1.396       .  A
C673       Br680   1.934       .  S
C674        C675   1.404       .  A
C674       Br679   1.935       .  S
C675        C952   1.415   1_545  A
C676        C951   1.415       .  A
C676       Br677   1.936       .  S
C681        C682   1.404       .  A
C681        C686   1.397       .  A
C681       Br826   1.934   1_554  S
C682        C683   1.416       .  A
C683        C684   1.394       .  A
C683       Br690   1.936       .  S
C684        C685   1.402       .  A
C684       Br689   1.935       .  S
C685        C686   1.414       .  A
C686       Br687   1.934       .  S
Br688       C819   1.934       .  S
C691        C696   1.427       .  A
C692        C693   1.392       .  A
C692        H697   1.085       .  S
C693        C694   1.385       .  A
C693        C820   1.455       .  S
C694        H698   1.086       .  S
C695        C696   1.420       .  A
C696        H699   1.083       .  S
C700        C701   1.396       .  A
C700        C705   1.428       .  A
C700        C787   1.475       .  S
C701        C702   1.389       .  A
C701        H706   1.085       .  S
C702        C703   1.384       .  A
C702        C823   1.454       .  S
C703        C704   1.387       .  A
C703        H707   1.086       .  S
C704        C705   1.423       .  A
C704        C759   1.487       .  S
C705        H708   1.083       .  S
C709        C710   1.396       .  A
C709        C714   1.427       .  A
C709        C758   1.476       .  S
C710        C711   1.390       .  A
C710        H715   1.085       .  S
C711        C712   1.385       .  A
C711        C810   1.454       .  S
C712        C713   1.387       .  A
C712        H716   1.086       .  S
C713        C714   1.423       .  A
C713        C790   1.487       .  S
C714        H717   1.083       .  S
C718        C719   1.396       .  A
C718        C794   1.475       .  S
C719        C720   1.391       .  A
C719        H724   1.085       .  S
C720        C721   1.385       .  A
C720        C813   1.455       .  S
C721        C722   1.387       .  A
C721        H725   1.086       .  S
C723        H726   1.083       .  S
C727        C728   1.426       .  A
C727        C732   1.396       .  A
C727        C789   1.477       .  S
C728        C729   1.420       .  A
C728        H733   1.083       .  S
C729        C730   1.386       .  A
C729        C788   1.483       .  S
C730        C731   1.386       .  A
C730        H734   1.086       .  S
C731        C732   1.393       .  A
C731        C800   1.457       .  S
C732        H735   1.085       .  S
C736        C737   1.397       .  A
C736        C741   1.428       .  A
C736        C791   1.475       .  S
C737        C738   1.390       .  A
C737        H742   1.085       .  S
C738        C739   1.384       .  A
C738        C803   1.456       .  S
C739        C740   1.387       .  A
C739        H743   1.086       .  S
C740        C741   1.423       .  A
C740        C757   1.488       .  S
C741        H744   1.083       .  S
O745        C756   1.298       .  A
O746        C757   1.285       .  A
O746      Eu1056   2.437       .  S
O747        C758   1.298       .  A
O747       Eu753   2.499       .  S
O748        C759   1.285       .  A
O749        C759   1.304       .  A
O749       Eu783   2.506       .  S
O750        C758   1.288       .  A
O750      Eu1058   2.447       .  S
O751        C757   1.303       .  A
O752        C756   1.289       .  A
O752       Eu753   2.454       .  S
Eu753       O755   2.348       .  S
Eu753       O761   2.337       .  S
O754       Eu783   2.366       .  S
O754      Eu1056   2.367       .  S
O755      Eu1058   2.367       .  S
H760        O761   0.964       .  S
O761      Eu1058   2.351       .  S
H762        O763   0.964       .  S
O763       Eu783   2.335       .  S
O764        C787   1.298       .  A
O764       Eu780   2.501       .  S
O765        C788   1.285       .  A
O765      Eu1057   2.432   1_545  S
O766        C789   1.298       .  A
O766       Eu782   2.499       .  S
O767        C790   1.285       .  A
O767       Eu783   2.434       .  S
O768        C791   1.298       .  A
O769        C792   1.285       .  A
O769       Eu782   2.434       .  S
O770        C793   1.285       .  A
O771        C794   1.298       .  A
O772        C793   1.303       .  A
O772       Eu782   2.504       .  S
O773        C932   1.289       .  A
O773       Eu783   2.453       .  S
O774       Eu780   2.457       .  S
O775        C930   1.302   1_556  A
O775       Eu781   2.501       .  S
O776        C791   1.287   1_455  A
O777        C790   1.304       .  A
O777      Eu1056   2.509       .  S
O778        C787   1.287       .  A
O778       Eu784   2.444       .  S
Eu780      O1022   2.437   1_545  S
Eu780      O1053   2.509   1_545  S
Eu780      O1030   2.367   1_545  S
Eu780       O798   2.338       .  S
Eu780       O786   2.349   1_655  S
Eu781      O1041   2.432       .  S
Eu781       O934   2.364   1_556  S
Eu782      O1026   2.447   1_545  S
Eu782      O1031   2.367   1_545  S
Eu782      O1037   2.351   1_545  S
Eu782       O796   2.365       .  S
Eu783       O785   2.348       .  S
Eu783      O1074   2.371       .  S
Eu784      O1061   2.336   1_545  S
Eu784       O798   2.351       .  S
Eu784       O786   2.368   1_655  S
O785      Eu1060   2.336       .  S
C792        O913   1.302   1_545  A
C794        O911   1.289   1_546  A
O796       Eu919   2.364   1_545  S
H797        O798   0.964       .  S
O798      Eu1059   2.371   1_545  S
C799        C800   1.406       .  A
C799        C804   1.397       .  A
C799       Br806   1.935       .  S
C800        C801   1.416       .  A
C802        C803   1.404       .  A
C802       Br807   1.937       .  S
C804       Br805   1.934       .  S
C809        C810   1.403       .  A
C809        C814   1.395       .  A
C809       Br816   1.935       .  S
C810       C1087   1.414       .  A
C811       C1086   1.414   1_545  A
C811        C812   1.396       .  A
C811       Br818   1.934       .  S
C812        C813   1.404       .  A
C812       Br817   1.935       .  S
C813       C1090   1.415   1_545  A
C814       C1089   1.415       .  A
C814       Br815   1.936       .  S
C819        C820   1.404       .  A
C819        C824   1.397       .  A
C820        C821   1.416       .  A
C821        C822   1.394       .  A
C821       Br828   1.936       .  S
C822        C823   1.402       .  A
C822       Br827   1.935       .  S
C823        C824   1.414       .  A
C824       Br825   1.934       .  S
C829        C968   1.396       .  A
C829        C834   1.427       .  A
C829       C1032   1.475       .  S
C830        C967   1.396       .  A
C830        C831   1.392       .  A
C830        H835   1.085       .  S
C831        C832   1.385       .  A
C831        C958   1.455       .  S
C832        C971   1.387       .  A
C832        H836   1.086       .  S
C833        C970   1.387       .  A
C833        C834   1.420       .  A
C833       C1069   1.483       .  S
C834        H837   1.083       .  S
C838        C839   1.396       .  A
C838        C843   1.428       .  A
C838        C925   1.475       .  S
C839        C840   1.389       .  A
C839        H844   1.085       .  S
C840        C841   1.384       .  A
C840        C961   1.454       .  S
C841        C842   1.387       .  A
C841        H845   1.086       .  S
C842        C843   1.423       .  A
C842        C897   1.487       .  S
C843        H846   1.083       .  S
C847        C848   1.396       .  A
C847        C852   1.427       .  A
C847        C896   1.476       .  S
C848        C849   1.390       .  A
C848        H853   1.085       .  S
C849        C850   1.385       .  A
C849        C948   1.454       .  S
C850        C851   1.387       .  A
C850        H854   1.086       .  S
C851        C852   1.423       .  A
C851        C928   1.487       .  S
C852        H855   1.083       .  S
C856        C857   1.396       .  A
C856        C999   1.427       .  A
C856        C932   1.475       .  S
C857        C858   1.391       .  A
C857        H862   1.085       .  S
C858        C859   1.385       .  A
C858        C951   1.455       .  S
C859        C860   1.387       .  A
C859        H863   1.086       .  S
C860        C999   1.420       .  A
C860       C1068   1.483       .  S
C861        C994   1.427       .  A
C861        C998   1.420       .  A
C861        H864   1.083   1_556  S
C865        C866   1.426       .  A
C865        C870   1.396       .  A
C865        C927   1.477       .  S
C866        C867   1.420       .  A
C866        H871   1.083       .  S
C867        C868   1.386       .  A
C867        C926   1.483       .  S
C868        C869   1.386       .  A
C868        H872   1.086       .  S
C869        C870   1.393       .  A
C869        C938   1.457       .  S
C870        H873   1.085       .  S
C874        C875   1.397       .  A
C874        C879   1.428       .  A
C874        C929   1.475       .  S
C875        C876   1.390       .  A
C875        H880   1.085       .  S
C876        C877   1.384       .  A
C876        C941   1.456       .  S
C877        C878   1.387       .  A
C877        H881   1.086       .  S
C878        C879   1.423       .  A
C878        C895   1.488       .  S
C879        H882   1.083       .  S
O883        C894   1.298   1_556  A
O883      Eu1057   2.499       .  S
O884        C895   1.285       .  A
O885        C896   1.298       .  A
O885       Eu891   2.499       .  S
O886        C897   1.285       .  A
O887        C897   1.304       .  A
O887       Eu921   2.506       .  S
O888        C896   1.288       .  A
O889        C895   1.303       .  A
O890        C894   1.289       .  A
O890       Eu891   2.454       .  S
Eu891       O893   2.348       .  S
Eu891       O899   2.337       .  S
O892       Eu921   2.366       .  S
O893      Eu1057   2.334   1_554  S
C894        C967   1.475       .  S
H898        O899   0.964       .  S
H900        O901   0.964       .  S
O901       Eu921   2.335       .  S
O902        C925   1.298       .  A
O902       Eu918   2.501       .  S
O903        C926   1.285       .  A
O904        C927   1.298       .  A
O904       Eu920   2.499       .  S
O905        C928   1.285       .  A
O905       Eu921   2.434       .  S
O906        C929   1.298       .  A
O906      Eu1059   2.503       .  S
O907        C930   1.285       .  A
O907       Eu920   2.434       .  S
O908        C931   1.285       .  A
O909        C932   1.298       .  A
O909      Eu1060   2.499       .  S
O910        C931   1.303       .  A
O910       Eu920   2.504       .  S
O911       Eu921   2.453       .  S
O912       Eu918   2.457       .  S
O913       Eu919   2.501       .  S
O914        C929   1.287   1_455  A
O915        C928   1.304       .  A
O916        C925   1.287       .  A
O916       Eu922   2.444       .  S
O917      Eu1060   2.504   1_455  S
Eu918       O936   2.338       .  S
Eu918       O924   2.349   1_655  S
Eu919      O1021   2.499       .  S
Eu919      O1031   2.334       .  S
Eu920       O934   2.365       .  S
Eu921      O1044   2.503   1_554  S
Eu921       O923   2.348   1_554  S
Eu922      O1047   2.499   1_554  S
Eu922      O1055   2.504   1_654  S
Eu922       O936   2.351       .  S
Eu922       O924   2.368   1_655  S
C930        C998   1.483   1_554  S
C931        C971   1.483       .  S
H933       O1072   0.966       .  S
O934       H1071   0.966   1_554  S
H935        O936   0.964       .  S
C937        C938   1.406       .  A
C937        C942   1.397       .  A
C937       Br944   1.935       .  S
C938        C939   1.416       .  A
C940        C941   1.404       .  A
C940       Br945   1.937       .  S
C942       Br943   1.934       .  S
C947        C948   1.403       .  A
C947        C952   1.395       .  A
C947       Br954   1.935       .  S
C949        C950   1.396       .  A
C949       Br956   1.934       .  S
C950        C951   1.404       .  A
C950       Br955   1.935       .  S
C952       Br953   1.936       .  S
C957        C958   1.404       .  A
C957        C962   1.397       .  A
C957      Br1102   1.934   1_554  S
C958        C959   1.416       .  A
C959        C960   1.394       .  A
C959       Br966   1.936       .  S
C960        C961   1.402       .  A
C960       Br965   1.935       .  S
C961        C962   1.414       .  A
C962       Br963   1.934       .  S
Br964      C1095   1.934       .  S
C967        C972   1.427       .  A
C968        C969   1.392       .  A
C968        H973   1.085       .  S
C969        C970   1.385       .  A
C969       C1096   1.455       .  S
C970        H974   1.086       .  S
C971        C972   1.420       .  A
C972        H975   1.083       .  S
C976        C977   1.396       .  A
C976        C981   1.428       .  A
C976       C1063   1.475       .  S
C977        C978   1.389       .  A
C977        H982   1.085       .  S
C978        C979   1.384       .  A
C978       C1099   1.454       .  S
C979        C980   1.387       .  A
C979        H983   1.086       .  S
C980        C981   1.423       .  A
C980       C1035   1.487       .  S
C981        H984   1.083       .  S
C985        C986   1.396       .  A
C985        C990   1.427       .  A
C985       C1034   1.476       .  S
C986        C987   1.390       .  A
C986        H991   1.085       .  S
C987        C988   1.385       .  A
C987       C1086   1.454       .  S
C988        C989   1.387       .  A
C988        H992   1.086       .  S
C989        C990   1.423       .  A
C989       C1066   1.487       .  S
C990        H993   1.083       .  S
C994        C995   1.396       .  A
C994       C1070   1.475       .  S
C995        C996   1.391       .  A
C995       H1000   1.085       .  S
C996        C997   1.385       .  A
C996       C1089   1.455       .  S
C997        C998   1.387       .  A
C997       H1001   1.086       .  S
C999       H1002   1.083       .  S
C1003      C1004   1.426       .  A
C1003      C1008   1.396       .  A
C1003      C1065   1.477       .  S
C1004      C1005   1.420       .  A
C1004      H1009   1.083       .  S
C1005      C1006   1.386       .  A
C1005      C1064   1.483       .  S
C1006      C1007   1.386       .  A
C1006      H1010   1.086       .  S
C1007      C1008   1.393       .  A
C1007      C1076   1.457       .  S
C1008      H1011   1.085       .  S
C1012      C1013   1.397       .  A
C1012      C1017   1.428       .  A
C1012      C1067   1.475       .  S
C1013      C1014   1.390       .  A
C1013      H1018   1.085       .  S
C1014      C1015   1.384       .  A
C1014      C1079   1.456       .  S
C1015      C1016   1.387       .  A
C1015      H1019   1.086       .  S
C1016      C1017   1.423       .  A
C1016      C1033   1.488       .  S
C1017      H1020   1.083       .  S
O1021      C1032   1.298       .  A
O1022      C1033   1.285       .  A
O1023      C1034   1.298       .  A
O1023     Eu1029   2.499       .  S
O1024      C1035   1.285       .  A
O1025      C1035   1.304       .  A
O1025     Eu1059   2.506       .  S
O1026      C1034   1.288       .  A
O1027      C1033   1.303       .  A
O1028      C1032   1.289       .  A
O1028     Eu1029   2.454       .  S
Eu1029     O1031   2.348       .  S
Eu1029     O1037   2.337       .  S
O1030     Eu1059   2.366       .  S
H1036      O1037   0.964       .  S
H1038      O1039   0.964       .  S
O1039     Eu1059   2.335       .  S
O1040      C1063   1.298       .  A
O1040     Eu1056   2.501       .  S
O1041      C1064   1.285       .  A
O1042      C1065   1.298       .  A
O1042     Eu1058   2.499       .  S
O1043      C1066   1.285       .  A
O1043     Eu1059   2.434       .  S
O1044      C1067   1.298       .  A
O1045      C1068   1.285       .  A
O1045     Eu1058   2.434       .  S
O1046      C1069   1.285       .  A
O1047      C1070   1.298       .  A
O1048      C1069   1.303       .  A
O1048     Eu1058   2.504       .  S
O1049     Eu1059   2.453       .  S
O1050     Eu1056   2.457       .  S
O1051     Eu1057   2.501       .  S
O1052      C1067   1.287   1_455  A
O1053      C1066   1.304       .  A
O1054      C1063   1.287       .  A
O1054     Eu1060   2.444       .  S
Eu1056     O1074   2.338       .  S
Eu1056     O1062   2.349   1_655  S
Eu1058     O1072   2.365       .  S
Eu1059     O1061   2.348       .  S
Eu1060     O1074   2.351       .  S
Eu1060     O1062   2.368   1_655  S
H1073      O1074   0.964       .  S
C1075      C1076   1.406       .  A
C1075      C1080   1.397       .  A
C1075     Br1082   1.935       .  S
C1076      C1077   1.416       .  A
C1078      C1079   1.404       .  A
C1078     Br1083   1.937       .  S
C1080     Br1081   1.934       .  S
C1085      C1086   1.403       .  A
C1085      C1090   1.395       .  A
C1085     Br1092   1.935       .  S
C1087      C1088   1.396       .  A
C1087     Br1094   1.934       .  S
C1088      C1089   1.404       .  A
C1088     Br1093   1.935       .  S
C1090     Br1091   1.936       .  S
C1095      C1096   1.404       .  A
C1095      C1100   1.397       .  A
C1096      C1097   1.416       .  A
C1097      C1098   1.394       .  A
C1097     Br1104   1.936       .  S
C1098      C1099   1.402       .  A
C1098     Br1103   1.935       .  S
C1099      C1100   1.414       .  A
C1100     Br1101   1.934       .  S
