geometry optimzed in LAMMPS
_audit_creation_date              2020-11-30 
_audit_creation_method            'lammps2cif' 
_symmetry_space_group_name_H-M    'P1' 
_symmetry_Int_Tables_number       1 
_symmetry_cell_setting            triclinic 
loop_ 
_symmetry_equiv_pos_as_xyz 
  x,y,z 
_cell_length_a                    45.929290529336214 
_cell_length_b                    46.28220494694987 
_cell_length_c                    46.312823736852515 
_cell_angle_alpha                 90.03600973511857 
_cell_angle_beta                  89.91299318638669 
_cell_angle_gamma                 89.98866851373985 
loop_ 
_atom_site_label 
_atom_site_type_symbol 
_atom_site_fract_x 
_atom_site_fract_y 
_atom_site_fract_z 
_atom_site_charge 
N1          N  0.66188261  0.72291527  0.74472905    -0.27140
N2          N  0.66274326  0.74442573  0.72594346    -0.34990
C3          C  0.63961503  0.76173316  0.73032851     0.01200
C4          C  0.62356386  0.75049883  0.75289075     0.07230
C5          C  0.63812563  0.72589657  0.76149226    -0.05870
H6          H  0.63456627  0.78069764  0.71764888     0.07900
H7          H  0.63178566  0.71108606  0.77843086     0.09100
Cu8        Cu  0.69425316  0.74837751  0.69408045     0.44170
Cu9        Cu  0.69249223  0.69001541  0.74628453     0.41990
Cu10       Cu  0.74680138  0.69020833  0.68965084     0.43880
N11         N  0.72559521  0.74525835  0.66196403    -0.34520
N12         N  0.74413087  0.72347862  0.65980921    -0.28780
C13         C  0.76007981  0.72675184  0.63564600    -0.04880
C14         C  0.75135498  0.75194234  0.62227769     0.07340
C15         C  0.72953243  0.76319316  0.63944261     0.01130
H16         H  0.77670039  0.71187202  0.62834795     0.08790
H17         H  0.71688184  0.78249375  0.63544717     0.07860
N18         N  0.74515872  0.65949597  0.72218496    -0.35970
N19         N  0.72528357  0.65938943  0.74288762    -0.28150
C20         C  0.72975080  0.63636916  0.76005074    -0.03390
C21         C  0.75359654  0.62146954  0.74963567     0.05220
C22         C  0.76282220  0.63657010  0.72562720     0.03310
H23         H  0.71636626  0.63068063  0.77842299     0.08420
H24         H  0.78071520  0.63107097  0.71143714     0.07250
N25         N  0.66299211  0.28099228  0.74550874    -0.27140
N26         N  0.66060110  0.26367366  0.72289614    -0.34990
C27         C  0.63621985  0.24779975  0.72565126     0.01200
C28         C  0.62293614  0.25534333  0.75132108     0.07230
C29         C  0.64038008  0.27637119  0.76341231    -0.05870
H30         H  0.62872404  0.23202528  0.71010589     0.07900
H31         H  0.63653747  0.28800464  0.78332102     0.09100
Cu32       Cu  0.69044556  0.26245607  0.68925906     0.44170
Cu33       Cu  0.69543325  0.31180082  0.74993683     0.41990
Cu34       Cu  0.74651428  0.31728485  0.69070161     0.43880
N35         N  0.72369793  0.26513199  0.65902665    -0.34520
N36         N  0.74440398  0.28497842  0.65980397    -0.28780
C37         C  0.76250135  0.28096795  0.63729715    -0.04880
C38         C  0.75262672  0.25754387  0.62170301     0.07340
C39         C  0.72797049  0.24804793  0.63588811     0.01130
H40         H  0.78107207  0.29446574  0.63234839     0.08790
H41         H  0.71400517  0.23028038  0.62971187     0.07860
N42         N  0.74420885  0.34688122  0.72419950    -0.35970
N43         N  0.72635329  0.34423155  0.74647619    -0.28150
C44         C  0.73038892  0.36667579  0.76450031    -0.03390
C45         C  0.75152202  0.38432560  0.75276093     0.05220
C46         C  0.75976513  0.37131358  0.72720875     0.03310
H47         H  0.71820416  0.37032161  0.78417485     0.08420
H48         H  0.77582219  0.37900690  0.71193337     0.07250
N49         N  0.34516378  0.28161628  0.74520275    -0.27140
N50         N  0.34407725  0.26046706  0.72601479    -0.34990
C51         C  0.36734617  0.24318841  0.72957912     0.01200
C52         C  0.38375521  0.25408988  0.75201071     0.07230
C53         C  0.36922608  0.27844739  0.76142409    -0.05870
H54         H  0.37223417  0.22446851  0.71644214     0.07900
H55         H  0.37578162  0.29295607  0.77853949     0.09100
Cu56       Cu  0.31215923  0.25723334  0.69461259     0.44170
Cu57       Cu  0.31448310  0.31435592  0.74766553     0.41990
Cu58       Cu  0.26343103  0.31857510  0.68822982     0.43880
N59         N  0.28137214  0.26146106  0.66223884    -0.34520
N60         N  0.26457751  0.28446943  0.65908218    -0.28780
C61         C  0.24891278  0.28154887  0.63472431    -0.04880
C62         C  0.25592011  0.25529423  0.62235190     0.07340
C63         C  0.27647726  0.24306969  0.64027554     0.01130
H64         H  0.23357940  0.29733450  0.62666518     0.08790
H65         H  0.28778385  0.22281029  0.63708233     0.07860
N66         N  0.26478997  0.34817441  0.72192887    -0.35970
N67         N  0.28281762  0.34603422  0.74407967    -0.28150
C68         C  0.27793744  0.36810326  0.76236701    -0.03390
C69         C  0.25597121  0.38495327  0.75104163     0.05220
C70         C  0.24818770  0.37189753  0.72536972     0.03310
H71         H  0.29003086  0.37200617  0.78201002     0.08420
H72         H  0.23177363  0.37911715  0.71028348     0.07250
N73         N  0.34748457  0.72195878  0.74211944    -0.27140
N74         N  0.34620578  0.74318932  0.72304659    -0.34990
C75         C  0.36874415  0.76123148  0.72737988     0.01200
C76         C  0.38493700  0.75071724  0.75013805     0.07040
C77         C  0.37103846  0.72578133  0.75892916    -0.05870
H78         H  0.37335490  0.78016956  0.71448582     0.07900
H79         H  0.37762034  0.71139620  0.77612324     0.09100
Cu80       Cu  0.31484499  0.74589799  0.69103548     0.44170
Cu81       Cu  0.31722735  0.68873762  0.74442129     0.41990
Cu82       Cu  0.25704136  0.69292465  0.69411765     0.43880
N83         N  0.28185693  0.74305890  0.66068419    -0.34520
N84         N  0.26037263  0.72408245  0.66214758    -0.28780
C85         C  0.24281942  0.72762577  0.63919322    -0.04880
C86         C  0.25395278  0.74974353  0.62254381     0.07340
C87         C  0.27869366  0.75903426  0.63663592     0.01130
H88         H  0.22378253  0.71464717  0.63465849     0.08790
H89         H  0.29340072  0.77598132  0.62985629     0.07860
N90         N  0.26088764  0.66121440  0.72547529    -0.35970
N91         N  0.28332161  0.65912374  0.74323728    -0.28150
C92         C  0.28019461  0.63522070  0.75947812    -0.03390
C93         C  0.25443824  0.62196056  0.75172688     0.05220
C94         C  0.24273363  0.63889201  0.73015277     0.03310
H95         H  0.29560043  0.62796909  0.77556173     0.08420
H96         H  0.22296505  0.63484688  0.71814749     0.07250
N97         N  0.34591697  0.74363550  0.28184234    -0.27140
N98         N  0.34467789  0.72424083  0.26088300    -0.34990
C99         C  0.36773276  0.72782797  0.24329206     0.01200
C100        C  0.38419702  0.75040735  0.25386194     0.07230
C101        C  0.36991448  0.75990644  0.27831072    -0.05870
H102        H  0.37250876  0.71453338  0.22465931     0.07900
H103        H  0.37656779  0.77716106  0.29261467     0.09100
Cu104      Cu  0.31296381  0.69245361  0.25833779     0.44170
Cu105      Cu  0.31552535  0.74667547  0.31478796     0.41990
Cu106      Cu  0.26198860  0.68963721  0.31812601     0.43880
N107        N  0.28133538  0.66079780  0.26291148    -0.34520
N108        N  0.26311711  0.65951246  0.28502962    -0.28780
C109        C  0.24636379  0.63583904  0.28234098    -0.04880
C110        C  0.25436164  0.62176065  0.25729855     0.07340
C111        C  0.27654797  0.63803453  0.24546533     0.01130
H112        H  0.22976914  0.62928765  0.29758700     0.08790
H113        H  0.28869720  0.63339817  0.22597990     0.07860
N114        N  0.26459072  0.72280991  0.34807614    -0.35970
N115        N  0.28377611  0.74405825  0.34647441    -0.28150
C116        C  0.27978599  0.76205346  0.36895087    -0.03390
C117        C  0.25713884  0.75146323  0.38543500     0.05220
C118        C  0.24803568  0.72655722  0.37176664     0.03310
H119        H  0.29284270  0.78100559  0.37330887     0.08420
H120        H  0.23083043  0.71213378  0.37860023     0.07250
N121        N  0.66179776  0.74514321  0.28390109    -0.27140
N122        N  0.66176336  0.72549011  0.26314416    -0.34990
C123        C  0.63838030  0.72968769  0.24620184     0.01200
C124        C  0.62314309  0.75309663  0.25682770     0.07230
C125        C  0.63843229  0.76237810  0.28072005    -0.05870
H126        H  0.63267872  0.71640822  0.22783467     0.07900
H127        H  0.63279639  0.78004107  0.29497904     0.09100
Cu128      Cu  0.69267468  0.69305952  0.25948217     0.44170
Cu129      Cu  0.69287885  0.74696750  0.31627981     0.41990
Cu130      Cu  0.74632234  0.68942701  0.31649088     0.43880
N131        N  0.72426386  0.66119830  0.26211022    -0.34520
N132        N  0.74339791  0.65946236  0.28335804    -0.28780
C133        C  0.75965468  0.63555618  0.27971410    -0.04880
C134        C  0.75044312  0.62189529  0.25486219     0.07340
C135        C  0.72803561  0.63861288  0.24419467     0.01130
H136        H  0.77675768  0.62859214  0.29415410     0.08790
H137        H  0.71495709  0.63431816  0.22526761     0.07860
N138        N  0.74482367  0.72199487  0.34717772    -0.35970
N139        N  0.72540056  0.74310578  0.34704940    -0.28150
C140        C  0.72995564  0.76024069  0.37008230    -0.03390
C141        C  0.75333346  0.74932822  0.38526555     0.05220
C142        C  0.76222991  0.72509817  0.37030101     0.03310
H143        H  0.71691463  0.77891198  0.37560402     0.08420
H144        H  0.77976847  0.71057929  0.37597511     0.07250
N145        N  0.66130981  0.26319307  0.28281312    -0.27140
N146        N  0.66169747  0.28352784  0.26275364    -0.34990
C147        C  0.63847057  0.28013004  0.24542037     0.01200
C148        C  0.62282078  0.25661899  0.25515071     0.07230
C149        C  0.63773922  0.24640558  0.27888375    -0.05870
H150        H  0.63312112  0.29404918  0.22743906     0.07900
H151        H  0.63178672  0.22832958  0.29245671     0.09100
Cu152      Cu  0.69293011  0.31578758  0.26066089     0.44170
Cu153      Cu  0.69231913  0.25962481  0.31508239     0.41990
Cu154      Cu  0.74753443  0.31537578  0.31706331     0.43880
N155        N  0.72557092  0.34650927  0.26421156    -0.34520
N156        N  0.74560732  0.34625902  0.28470392    -0.28780
C157        C  0.76309787  0.36933006  0.28135811    -0.04880
C158        C  0.75352870  0.38471341  0.25769288     0.07340
C159        C  0.72970662  0.36980825  0.24734247     0.01130
H160        H  0.78106618  0.37476201  0.29542288     0.08790
H161        H  0.71614682  0.37564318  0.22918283     0.07860
N162        N  0.74441642  0.28249185  0.34730571    -0.35970
N163        N  0.72461750  0.26176679  0.34620925    -0.28150
C164        C  0.72831493  0.24398145  0.36887095    -0.03390
C165        C  0.75140396  0.25415204  0.38496055     0.05220
C166        C  0.76105957  0.27862008  0.37086981     0.03310
H167        H  0.71472465  0.22550592  0.37366460     0.08420
H168        H  0.77866536  0.29270257  0.37736660     0.07250
N169        N  0.78461425  0.44436776  0.79088626    -0.27140
N170        N  0.77064927  0.45834465  0.77020351    -0.34990
C171        C  0.75676330  0.43907301  0.75339221     0.01200
C172        C  0.76200017  0.41182864  0.76431931     0.07230
C173        C  0.77961970  0.41586837  0.78807937    -0.05870
H174        H  0.74367552  0.44452025  0.73477514     0.07900
H175        H  0.78870493  0.39932656  0.80187946     0.09100
Cu176      Cu  0.77059408  0.50296243  0.76614972     0.44170
Cu177      Cu  0.81157627  0.46440751  0.82057608     0.41990
Cu178      Cu  0.81926836  0.54206318  0.81331347     0.43880
N179        N  0.77296338  0.54767780  0.76769251    -0.34520
N180        N  0.79085211  0.56201832  0.78486809    -0.28780
C181        C  0.78679043  0.59055470  0.78102294    -0.04880
C182        C  0.76534404  0.59418473  0.76049790     0.07340
C183        C  0.75700913  0.56668629  0.75248225     0.01130
H184        H  0.79842787  0.60734159  0.79245022     0.08790
H185        H  0.74049345  0.56090185  0.73688935     0.07860
N186        N  0.84385846  0.51711125  0.84132631    -0.35970
N187        N  0.84060119  0.48891477  0.84444335    -0.28150
C188        C  0.85939793  0.47941352  0.86453539    -0.03390
C189        C  0.87545191  0.50272081  0.87444643     0.05220
C190        C  0.86489546  0.52628983  0.85926699     0.03310
H191        H  0.86145943  0.45709025  0.87112208     0.08420
H192        H  0.87149050  0.54860612  0.86144450     0.07250
N193        N  0.21619456  0.56204106  0.78521433    -0.27140
N194        N  0.23586308  0.54795149  0.76978249    -0.34990
C195        C  0.25269993  0.56715963  0.75576465     0.01200
C196        C  0.24294481  0.59453833  0.76256548     0.07230
C197        C  0.21975920  0.59061471  0.78115987    -0.05870
H198        H  0.27045684  0.56158332  0.74143813     0.07900
H199        H  0.20667032  0.60724344  0.79123580     0.09100
Cu200      Cu  0.23850537  0.50328405  0.76806752     0.44170
Cu201      Cu  0.18643268  0.54165827  0.81206864     0.41990
Cu202      Cu  0.19543524  0.46400483  0.82034310     0.43880
N203        N  0.23718069  0.45859028  0.77040714    -0.34520
N204        N  0.22220738  0.44419359  0.79012458    -0.28780
C205        C  0.22655912  0.41569205  0.78626451    -0.04880
C206        C  0.24482681  0.41214208  0.76282470     0.07340
C207        C  0.25115816  0.43965820  0.75324758     0.01130
H208        H  0.21690067  0.39885923  0.79933312     0.08790
H209        H  0.26518911  0.44551968  0.73540903     0.07860
N210        N  0.16664109  0.48864122  0.84458620    -0.35970
N211        N  0.16233669  0.51660815  0.84051281    -0.28150
C212        C  0.14115484  0.52570197  0.85841873    -0.03390
C213        C  0.13198433  0.50242080  0.87473097     0.05220
C214        C  0.14866052  0.47931003  0.86555763     0.03310
H215        H  0.13342593  0.54773457  0.85985675     0.08420
H216        H  0.14743993  0.45724940  0.87316479     0.07250
N217        N  0.79074386  0.44446732  0.22295153    -0.27140
N218        N  0.77203273  0.45866677  0.23941959    -0.34990
C219        C  0.75593883  0.43953215  0.25436605     0.01200
C220        C  0.76509995  0.41211113  0.24694363     0.07230
C221        C  0.78714200  0.41591292  0.22703213    -0.05870
H222        H  0.73882049  0.44517452  0.26941461     0.07900
H223        H  0.79945006  0.39922510  0.21611974     0.09100
Cu224      Cu  0.76904518  0.50335396  0.24049745     0.44170
Cu225      Cu  0.81949944  0.46458372  0.19497027     0.41990
Cu226      Cu  0.81188891  0.54223484  0.18747830     0.43880
N227        N  0.76942470  0.54799451  0.23679060    -0.34520
N228        N  0.78435054  0.56214156  0.21685314    -0.28780
C229        C  0.77962772  0.59065702  0.22002312    -0.04880
C230        C  0.76107895  0.59449827  0.24317035     0.07340
C231        C  0.75505870  0.56714250  0.25338691     0.01130
H232        H  0.78941136  0.60731894  0.20682726     0.08790
H233        H  0.74122293  0.56154361  0.27145780     0.07860
N234        N  0.84085911  0.51756607  0.16358214    -0.35970
N235        N  0.84409736  0.48938458  0.16685754    -0.28150
C236        C  0.86501905  0.48002821  0.14882274    -0.03390
C237        C  0.87550306  0.50345262  0.13339004     0.05220
C238        C  0.85954821  0.52687729  0.14324837     0.03310
H239        H  0.87155175  0.45768030  0.14671454     0.08420
H240        H  0.86158089  0.54913380  0.13642766     0.07250
N241        N  0.21702757  0.56243755  0.22202050    -0.27140
N242        N  0.23433440  0.54802479  0.23969702    -0.34990
C243        C  0.25027016  0.56697642  0.25501686     0.01200
C244        C  0.24267237  0.59449067  0.24636476     0.07230
C245        C  0.22161516  0.59093757  0.22545316    -0.05870
H246        H  0.26632461  0.56114122  0.27105300     0.07900
H247        H  0.21040570  0.60775594  0.21366945     0.09100
Cu248      Cu  0.23614738  0.50328805  0.24145369     0.44170
Cu249      Cu  0.18825666  0.54269520  0.19386892     0.41990
Cu250      Cu  0.19553978  0.46501387  0.18641692     0.43880
N251        N  0.23586484  0.45866765  0.23732801    -0.34520
N252        N  0.22182894  0.44471576  0.21665456    -0.28780
C253        C  0.22667910  0.41618284  0.21954647    -0.04880
C254        C  0.24435884  0.41212453  0.24328151     0.07340
C255        C  0.24975022  0.43938480  0.25411034     0.01130
H256        H  0.21765566  0.39964989  0.20568064     0.08790
H257        H  0.26298004  0.44484097  0.27263026     0.07860
N258        N  0.16738170  0.48998121  0.16185454    -0.35970
N259        N  0.16376424  0.51808788  0.16556439    -0.28150
C260        C  0.14291015  0.52749540  0.14751778    -0.03390
C261        C  0.13329988  0.50427610  0.13136327     0.05220
C262        C  0.14926059  0.48083920  0.14097946     0.03310
H263        H  0.13568899  0.54968395  0.14590130     0.08420
H264        H  0.14743350  0.45868327  0.13376459     0.07250
O265        O  0.97269721  0.47867652  0.97408359    -0.72790
O266        O  0.03571536  0.47977714  0.03393341    -0.73770
O267        O  0.97403367  0.47933983  0.03541786    -0.62390
O268        O  0.03479573  0.47919637  0.97312194    -0.70800
O269        O  0.03496260  0.52722618  0.97329464    -0.70350
O270        O  0.97187263  0.52720944  0.03321295    -0.61610
O271        O  0.03358210  0.52773389  0.03496969    -0.74120
O272        O  0.97362823  0.52659409  0.97209263    -0.72900
Cu273      Cu  0.00429116  0.47755647  0.00413660     1.04560
Cu274      Cu  0.00352079  0.52887726  0.00340376     1.04330
C275        C  0.96347690  0.50243051  0.96338869     0.93410
C276        C  0.04429793  0.50395000  0.04409612     0.92550
C277        C  0.96319241  0.50330086  0.04396257     0.84690
C278        C  0.04456966  0.50320641  0.96360924     0.90960
N279        N  0.44441046  0.78878970  0.78494988    -0.27140
N280        N  0.45899487  0.76924679  0.76989945    -0.34990
C281        C  0.44001515  0.75268676  0.75525806     0.01200
C282        C  0.41228040  0.76244873  0.76127512     0.07230
C283        C  0.41573845  0.78534399  0.78007874    -0.05870
H284        H  0.44599037  0.73498098  0.74118826     0.07900
H285        H  0.39872182  0.79827504  0.78979622     0.09100
Cu286      Cu  0.50399701  0.76613323  0.76953847     0.44170
Cu287      Cu  0.46413075  0.81836334  0.81234665     0.41990
Cu288      Cu  0.54288525  0.81484741  0.81679484     0.43880
N289        N  0.54900169  0.76825149  0.77173804    -0.34520
N290        N  0.56324970  0.78626967  0.78881060    -0.28780
C291        C  0.59203795  0.78273469  0.78470844    -0.04880
C292        C  0.59593183  0.76143112  0.76420311     0.07340
C293        C  0.56832579  0.75266844  0.75640797     0.01130
H294        H  0.60882247  0.79474508  0.79583910     0.08790
H295        H  0.56267813  0.73636336  0.74063966     0.07860
N296        N  0.51746122  0.84185141  0.84215275    -0.35970
N297        N  0.48881399  0.84342289  0.84026897    -0.28150
C298        C  0.47902391  0.86304886  0.85937189    -0.03390
C299        C  0.50264923  0.87438051  0.87425489     0.05220
C300        C  0.52665715  0.86036511  0.86256408     0.03310
H301        H  0.45635061  0.86878836  0.86171156     0.08420
H302        H  0.54922888  0.86315154  0.86853554     0.07250
N303        N  0.56291875  0.22076448  0.78878714    -0.27140
N304        N  0.54852087  0.23635917  0.76960053    -0.34990
C305        C  0.56772023  0.25092117  0.75316772     0.01200
C306        C  0.59538013  0.24432783  0.76272872     0.07230
C307        C  0.59164771  0.22527319  0.78533213    -0.05870
H308        H  0.56194700  0.26542994  0.73579189     0.07900
H309        H  0.60852204  0.21513029  0.79805904     0.09100
Cu310      Cu  0.50346506  0.23767975  0.76707455     0.44170
Cu311      Cu  0.54300429  0.19309338  0.81792216     0.41990
Cu312      Cu  0.46444547  0.18890192  0.81450969     0.43880
N313        N  0.45842553  0.23554282  0.76948297    -0.34520
N314        N  0.44420237  0.21748268  0.78655994    -0.28780
C315        C  0.41540830  0.22130321  0.78291544    -0.04880
C316        C  0.41145915  0.24284604  0.76272766     0.07340
C317        C  0.43905227  0.25146123  0.75462735     0.01130
H318        H  0.39865051  0.20939759  0.79423308     0.08790
H319        H  0.44465328  0.26795977  0.73904852     0.07860
N320        N  0.48963690  0.16350214  0.84155864    -0.35970
N321        N  0.51830760  0.16518096  0.84294414    -0.28150
C322        C  0.52802932  0.14611763  0.86258259    -0.03390
C323        C  0.50431918  0.13156042  0.87416031     0.05220
C324        C  0.48033465  0.14333087  0.86029341     0.03310
H325        H  0.55069568  0.14361263  0.86826442     0.08420
H326        H  0.45772694  0.13757260  0.86337106     0.07250
N327        N  0.44453046  0.78481570  0.21682171    -0.27140
N328        N  0.45874337  0.76945750  0.23632446    -0.34990
C329        C  0.43940967  0.75476629  0.25247806     0.01200
C330        C  0.41186167  0.76107567  0.24242725     0.07230
C331        C  0.41578748  0.78012757  0.21986194    -0.05870
H332        H  0.44500712  0.74055765  0.27015595     0.07900
H333        H  0.39903321  0.79018464  0.20691354     0.09100
Cu334      Cu  0.50372359  0.76903811  0.23990630     0.44170
Cu335      Cu  0.46473158  0.81236932  0.18783020     0.41990
Cu336      Cu  0.54326362  0.81721650  0.19211542     0.43880
N337        N  0.54875288  0.77176291  0.23844333    -0.34520
N338        N  0.56318553  0.78935850  0.22105238    -0.28780
C339        C  0.59193607  0.78555069  0.22507743    -0.04880
C340        C  0.59561716  0.76463529  0.24597303     0.07340
C341        C  0.56792648  0.75628997  0.25399408     0.01130
H342        H  0.60884312  0.79698673  0.21349729     0.08790
H343        H  0.56212267  0.74004425  0.26976511     0.07860
N344        N  0.51818657  0.84187448  0.16424205    -0.35970
N345        N  0.48955001  0.83986084  0.16253007    -0.28150
C346        C  0.47984936  0.85853521  0.14252425    -0.03390
C347        C  0.50353944  0.87304051  0.13091067     0.05220
C348        C  0.52747984  0.86193069  0.14536408     0.03310
H349        H  0.45711349  0.86166929  0.13742996     0.08420
H350        H  0.55006599  0.86777730  0.14227239     0.07250
N351        N  0.56292238  0.22183262  0.21784245    -0.27140
N352        N  0.54848290  0.23769004  0.23684127    -0.34990
C353        C  0.56762906  0.25254353  0.25302449     0.01200
C354        C  0.59531107  0.24571844  0.24362254     0.07230
C355        C  0.59165220  0.22625134  0.22134544    -0.05870
H356        H  0.56181236  0.26719332  0.27030361     0.07900
H357        H  0.60856343  0.21586972  0.20879747     0.09100
Cu358      Cu  0.50346623  0.23847893  0.23987126     0.44170
Cu359      Cu  0.54296089  0.19424003  0.18869309     0.41990
Cu360      Cu  0.46430032  0.18975544  0.19258492     0.43880
N361        N  0.45844932  0.23596477  0.23814024    -0.34520
N362        N  0.44412182  0.21821478  0.22084688    -0.28780
C363        C  0.41534545  0.22214562  0.22467294    -0.04880
C364        C  0.41154383  0.24330873  0.24534032     0.07340
C365        C  0.43918895  0.25163391  0.25346198     0.01130
H366        H  0.39850622  0.21051943  0.21322214     0.08790
H367        H  0.44490513  0.26793033  0.26921525     0.07860
N368        N  0.48958073  0.16445697  0.16537090    -0.35970
N369        N  0.51821354  0.16642648  0.16365374    -0.28150
C370        C  0.52796358  0.14748315  0.14386801    -0.03390
C371        C  0.50432850  0.13257562  0.13258084     0.05220
C372        C  0.48034819  0.14411516  0.14679063     0.03310
H373        H  0.55061802  0.14528129  0.13801212     0.08420
H374        H  0.45777454  0.13809870  0.14408493     0.07250
O375        O  0.52744480  0.03375446  0.97280074    -0.72790
O376        O  0.52775295  0.97299015  0.03459669    -0.73770
O377        O  0.52776820  0.97251357  0.97313489    -0.62390
O378        O  0.52737699  0.03415107  0.03417608    -0.70800
O379        O  0.47913985  0.03368388  0.03445300    -0.70350
O380        O  0.47952761  0.97252491  0.97292168    -0.61610
O381        O  0.47946764  0.97217028  0.03404802    -0.74120
O382        O  0.47919511  0.03395157  0.97322094    -0.72900
Cu383      Cu  0.52925621  0.00336036  0.00367638     1.04560
Cu384      Cu  0.47765787  0.00308058  0.00367087     1.04330
C385        C  0.50328372  0.04357883  0.96328293     0.93410
C386        C  0.50365698  0.96288865  0.04401457     0.92550
C387        C  0.50370791  0.96278997  0.96327169     0.84690
C388        C  0.50320001  0.04368438  0.04403355     0.90960
N389        N  0.34545541  0.26261570  0.28372264    -0.27140
N390        N  0.34510709  0.28202049  0.26275752    -0.34990
C391        C  0.36839532  0.27783718  0.24559683     0.01200
C392        C  0.38395856  0.25470472  0.25630600     0.07230
C393        C  0.36896678  0.24557904  0.28046986    -0.05870
H394        H  0.37381841  0.29094959  0.22702737     0.07900
H395        H  0.37489349  0.22814489  0.29485386     0.09100
Cu396      Cu  0.31378212  0.31410620  0.25909496     0.44170
Cu397      Cu  0.31465031  0.26072073  0.31642659     0.41990
Cu398      Cu  0.25992752  0.31699564  0.31613948     0.43880
N399        N  0.28173652  0.34559113  0.26178439    -0.34520
N400        N  0.26256758  0.34708245  0.28308182    -0.28780
C401        C  0.24608507  0.37085255  0.27957560    -0.04880
C402        C  0.25512639  0.38466180  0.25472431     0.07340
C403        C  0.27772033  0.36817991  0.24394963     0.01130
H404        H  0.22894960  0.37764004  0.29412222     0.08790
H405        H  0.29081030  0.37269068  0.22504682     0.07860
N406        N  0.26193854  0.28463506  0.34700790    -0.35970
N407        N  0.28199364  0.26411607  0.34719139    -0.28150
C408        C  0.27781804  0.24714765  0.37041078    -0.03390
C409        C  0.25397095  0.25749671  0.38535125     0.05220
C410        C  0.24442448  0.28124349  0.37006104     0.03310
H411        H  0.29137515  0.22893811  0.37617798     0.08420
H412        H  0.22642378  0.29530760  0.37552197     0.07250
N413        N  0.79036211  0.78475954  0.44466365    -0.27140
N414        N  0.77283970  0.76718165  0.45900750    -0.34990
C415        C  0.75706148  0.75176968  0.44001118     0.01200
C416        C  0.76509610  0.76012709  0.41253601     0.07230
C417        C  0.78618487  0.78103638  0.41615651    -0.05870
H418        H  0.74080435  0.73587654  0.44578990     0.07900
H419        H  0.79751149  0.79280132  0.39938301     0.09100
Cu420      Cu  0.77051838  0.76550266  0.50370380     0.44170
Cu421      Cu  0.81846381  0.81360616  0.46445380     0.41990
Cu422      Cu  0.81135853  0.82001722  0.54217007     0.43880
N423        N  0.77057445  0.76946798  0.54831387    -0.34520
N424        N  0.78464382  0.79009616  0.56230548    -0.28780
C425        C  0.77969091  0.78722752  0.59079881    -0.04880
C426        C  0.76195046  0.76350422  0.59481176     0.07340
C427        C  0.75661407  0.75266409  0.56755728     0.01130
H428        H  0.78879942  0.80101887  0.60734292     0.08790
H429        H  0.74341167  0.73410557  0.56208596     0.07860
N430        N  0.83948644  0.84487483  0.51753755    -0.35970
N431        N  0.84254267  0.84212201  0.48929285    -0.28150
C432        C  0.86305337  0.86069144  0.48009429    -0.03390
C433        C  0.87329573  0.87606280  0.50366184     0.05220
C434        C  0.85787653  0.86534486  0.52705630     0.03310
H435        H  0.86976709  0.86299788  0.45781886     0.08420
H436        H  0.86025226  0.87137947  0.54948360     0.07250
N437        N  0.22247496  0.78921483  0.44491373    -0.27140
N438        N  0.23827209  0.77007110  0.45918960    -0.34990
C439        C  0.25302035  0.75368507  0.44015023     0.01200
C440        C  0.24630136  0.76318464  0.41272803     0.07230
C441        C  0.22696571  0.78570813  0.41641290    -0.05870
H442        H  0.26757218  0.73622845  0.44586652     0.07900
H443        H  0.21658018  0.79830252  0.39967272     0.09100
Cu444      Cu  0.23923400  0.76701456  0.50384602     0.44170
Cu445      Cu  0.19439728  0.81818338  0.46466931     0.41990
Cu446      Cu  0.18810138  0.81192368  0.54244940     0.43880
N447        N  0.23607678  0.76807111  0.54850481    -0.34520
N448        N  0.21686694  0.78405731  0.56259657    -0.28780
C449        C  0.22011444  0.77978003  0.59113343    -0.04880
C450        C  0.24254013  0.76035274  0.59506163     0.07340
C451        C  0.25226650  0.75337099  0.56771605     0.01130
H452        H  0.20739390  0.79034684  0.60773929     0.08790
H453        H  0.26973503  0.73869199  0.56217545     0.07860
N454        N  0.16336459  0.83992048  0.51774229    -0.35970
N455        N  0.16591007  0.84253208  0.48944425    -0.28150
C456        C  0.14714541  0.86278301  0.48017238    -0.03390
C457        C  0.13190552  0.87337803  0.50376682     0.05220
C458        C  0.14291126  0.85839545  0.52724043     0.03310
H459        H  0.14462264  0.86907151  0.45782791     0.08420
H460        H  0.13707858  0.86105883  0.54970459     0.07250
N461        N  0.78465883  0.21597675  0.44486214    -0.27140
N462        N  0.76987208  0.23610757  0.45889369    -0.34990
C463        C  0.75586744  0.25285526  0.43968066     0.01200
C464        C  0.76202898  0.24258010  0.41237263     0.07230
C465        C  0.78024595  0.21919748  0.41632789    -0.05870
H466        H  0.74212356  0.27102423  0.44520556     0.07900
H467        H  0.78989554  0.20578578  0.39974262     0.09100
Cu468      Cu  0.76921073  0.23970025  0.50347988     0.44170
Cu469      Cu  0.81131127  0.18613929  0.46518823     0.41990
Cu470      Cu  0.81997345  0.19479391  0.54273406     0.43880
N471        N  0.77194853  0.23877382  0.54811564    -0.34520
N472        N  0.79085254  0.22275918  0.56251122    -0.28780
C473        C  0.78698093  0.22705329  0.59100138    -0.04880
C474        C  0.76451467  0.24655678  0.59452475     0.07340
C475        C  0.75543368  0.25356125  0.56702957     0.01130
H476        H  0.79935003  0.21651492  0.60783207     0.08790
H477        H  0.73813389  0.26829056  0.56117938     0.07860
N478        N  0.84360984  0.16566086  0.51805487    -0.35970
N479        N  0.83963905  0.16177049  0.49004976    -0.28150
C480        C  0.85752709  0.14071259  0.48078861    -0.03390
C481        C  0.87365221  0.13096865  0.50405192     0.05220
C482        C  0.86436161  0.14738521  0.52729327     0.03310
H483        H  0.85914474  0.13357546  0.45860452     0.08420
H484        H  0.87184531  0.14591577  0.54937948     0.07250
N485        N  0.21658050  0.22272141  0.44498075    -0.27140
N486        N  0.23470598  0.23972966  0.45922121    -0.34990
C487        C  0.25083567  0.25470496  0.44013655     0.01200
C488        C  0.24233729  0.24669815  0.41270246     0.07230
C489        C  0.22061951  0.22644466  0.41644735    -0.05870
H490        H  0.26751600  0.27018400  0.44582174     0.07900
H491        H  0.20876956  0.21512828  0.39974284     0.09100
Cu492      Cu  0.23690730  0.24136221  0.50390962     0.44170
Cu493      Cu  0.18796724  0.19462298  0.46509402     0.41990
Cu494      Cu  0.19660928  0.18622553  0.54255797     0.43880
N495        N  0.23666695  0.23743088  0.54850990    -0.34520
N496        N  0.22315888  0.21644078  0.56253426    -0.28780
C497        C  0.22817204  0.21939839  0.59100358    -0.04880
C498        C  0.24522325  0.24363323  0.59496936     0.07340
C499        C  0.25017983  0.25461479  0.56770619     0.01130
H500        H  0.21948956  0.20536350  0.60757789     0.08790
H501        H  0.26296002  0.27345185  0.56218070     0.07860
N502        N  0.16736046  0.16258522  0.51798297    -0.35970
N503        N  0.16364764  0.16633498  0.48993700    -0.28150
C504        C  0.14246682  0.14859176  0.48068766    -0.03390
C505        C  0.13233763  0.13282827  0.50402335     0.05220
C506        C  0.14874179  0.14218447  0.52729330     0.03310
H507        H  0.13549730  0.14689628  0.45846033     0.08420
H508        H  0.14702394  0.13500415  0.54945225     0.07250
O509        O  0.97180594  0.97412989  0.52740446    -0.72790
O510        O  0.03597171  0.03281611  0.52750174    -0.73770
O511        O  0.97434615  0.03542660  0.52749142    -0.62390
O512        O  0.03348082  0.97168575  0.52736550    -0.70800
O513        O  0.03589810  0.97409743  0.47957310    -0.70350
O514        O  0.97181527  0.03295974  0.47967122    -0.61610
O515        O  0.03353619  0.03538703  0.47969626    -0.74120
O516        O  0.97425105  0.97175456  0.47959801    -0.72900
Cu517      Cu  0.00389399  0.00351266  0.52912976     1.04560
Cu518      Cu  0.00388612  0.00355657  0.47793879     1.04330
C519        C  0.96330985  0.96323513  0.50349986     0.93410
C520        C  0.04450721  0.04373556  0.50362699     0.92550
C521        C  0.96339340  0.04387854  0.50360513     0.84690
C522        C  0.04443423  0.96319261  0.50344353     0.90960
C523        C  0.11162392  0.08679963  0.52312147    -0.21150
C524        C  0.10957056  0.11024752  0.50398908    -0.09200
C525        C  0.08583513  0.11166401  0.48484231     0.29660
C526        C  0.06493095  0.08972833  0.48460151    -0.21150
C527        C  0.06704766  0.06633904  0.50371912    -0.09210
C528        C  0.09057190  0.06500014  0.52303079     0.29670
F529        F  0.09370056  0.04216671  0.54115290    -0.19730
H530        H  0.12983282  0.08506653  0.53784055     0.18030
H531        H  0.04670469  0.09131563  0.46986813     0.18040
F532        F  0.08222538  0.13467555  0.46705896    -0.19720
C533        C  0.92110223  0.11160937  0.52163866    -0.21150
C534        C  0.89647469  0.10848322  0.50397173    -0.09200
C535        C  0.89404331  0.08390925  0.48623993     0.29660
C536        C  0.91611085  0.06311198  0.48597665    -0.21150
C537        C  0.94066073  0.06626508  0.50366363    -0.09210
C538        C  0.94308159  0.09070942  0.52148724     0.29670
F539        F  0.96712050  0.09482521  0.53800751    -0.19730
H540        H  0.92356917  0.13050891  0.53521284     0.18030
H541        H  0.91375653  0.04419736  0.47238848     0.18040
F542        F  0.86991443  0.07944983  0.46995721    -0.19720
C543        C  0.06686334  0.91933730  0.52520638    -0.21150
C544        C  0.06691478  0.94041673  0.50344437    -0.09200
C545        C  0.08836639  0.93927882  0.48178712     0.29660
C546        C  0.10935705  0.91741356  0.48204743    -0.21150
C547        C  0.10932982  0.89624726  0.50379750    -0.09210
C548        C  0.08766085  0.89730390  0.52532602     0.29670
F549        F  0.08583204  0.87658120  0.54595318    -0.19730
H550        H  0.05028644  0.91957068  0.54186668     0.18030
H551        H  0.12592107  0.91734182  0.46539835     0.18040
F552        F  0.08957371  0.95973448  0.46082282    -0.19720
C553        C  0.91852051  0.89773110  0.48292781    -0.21150
C554        C  0.89625700  0.89851099  0.50376099    -0.09200
C555        C  0.89627740  0.92081724  0.52445077     0.29660
C556        C  0.91836392  0.94158120  0.52440929    -0.21150
C557        C  0.94051635  0.94080343  0.50353366    -0.09210
C558        C  0.94046024  0.91865635  0.48275068     0.29670
F559        F  0.96206048  0.91672857  0.46279887    -0.19730
H560        H  0.91922384  0.88063918  0.46697283     0.18030
H561        H  0.91780852  0.95868860  0.54037426     0.18040
F562        F  0.87446969  0.92326085  0.54409429    -0.19720
C563        C  0.47845142  0.10325092  0.09504924    -0.21150
C564        C  0.50429474  0.10965787  0.11001098    -0.09200
C565        C  0.52964506  0.09387978  0.10313878     0.29660
C566        C  0.52905021  0.07267548  0.08163818    -0.21150
C567        C  0.50323011  0.06634689  0.06669917    -0.09210
C568        C  0.47780955  0.08184313  0.07373799     0.29670
F569        F  0.45236125  0.07675269  0.05976739    -0.19730
H570        H  0.45861391  0.11503598  0.09951562     0.18030
H571        H  0.54887719  0.06089350  0.07695955     0.18040
F572        F  0.55493679  0.09815313  0.11757783    -0.19720
C573        C  0.52608801  0.91633760  0.10755465    -0.21150
C574        C  0.50341940  0.89594890  0.10850688    -0.09200
C575        C  0.48091572  0.89781285  0.08794619     0.29660
C576        C  0.48100885  0.91984340  0.06731010    -0.21150
C577        C  0.50369835  0.94012472  0.06637029    -0.09210
C578        C  0.52632117  0.93817749  0.08670310     0.29670
F579        F  0.54826000  0.95782654  0.08695959    -0.19730
H580        H  0.54352306  0.91568010  0.12323500     0.18030
H581        H  0.46357265  0.92067632  0.05161034     0.18040
F582        F  0.45930317  0.87786528  0.08701177    -0.19720
C583        C  0.52849059  0.07069386  0.92387697    -0.21150
C584        C  0.50333344  0.06609118  0.94053652    -0.09200
C585        C  0.47852187  0.08308078  0.93507228     0.29660
C586        C  0.47908702  0.10421537  0.91351649    -0.21150
C587        C  0.50426357  0.10887428  0.89684899    -0.09210
C588        C  0.52898970  0.09166295  0.90216545     0.29670
F589        F  0.55343383  0.09430665  0.88591739    -0.19730
H590        H  0.54778166  0.05769820  0.92734155     0.18030
H591        H  0.45980248  0.11722210  0.91020286     0.18040
F592        F  0.45384757  0.07976845  0.95089616    -0.19720
C593        C  0.52839501  0.91217694  0.90335561    -0.21150
C594        C  0.50267117  0.89686714  0.89724670    -0.09200
C595        C  0.47742848  0.90333120  0.91336457     0.29660
C596        C  0.47799471  0.92480815  0.93460314    -0.21150
C597        C  0.50369227  0.94011632  0.94061624    -0.09210
C598        C  0.52901502  0.93346311  0.92478704     0.29670
F599        F  0.55432709  0.94781780  0.92955113    -0.19730
H600        H  0.54814157  0.90801850  0.89129503     0.18030
H601        H  0.45825456  0.92918554  0.94665273     0.18040
F602        F  0.45229607  0.88850550  0.90937447    -0.19720
C603        C  0.08436267  0.51915985  0.11360069    -0.21150
C604        C  0.11067110  0.50444116  0.10885493    -0.09200
C605        C  0.11506386  0.48981565  0.08260757     0.29660
C606        C  0.09324273  0.48964714  0.06161421    -0.21150
C607        C  0.06695826  0.50430196  0.06640339    -0.09210
C608        C  0.06253989  0.51900238  0.09256795     0.29670
F609        F  0.03676880  0.53226678  0.09814152    -0.19730
H610        H  0.08052744  0.53029701  0.13382879     0.18030
H611        H  0.09700466  0.47844302  0.04140273     0.18040
F612        F  0.14078672  0.47652878  0.07690223    -0.19720
C613        C  0.89683519  0.52357314  0.08805260    -0.21150
C614        C  0.89820098  0.50342432  0.11068994    -0.09200
C615        C  0.92123498  0.48335513  0.11121664     0.29660
C616        C  0.94208916  0.48323084  0.08921626    -0.21150
C617        C  0.94066610  0.50336279  0.06663780    -0.09210
C618        C  0.91786031  0.52360489  0.06620400     0.29670
F619        F  0.91538761  0.54282374  0.04420854    -0.19730
H620        H  0.87918700  0.53904440  0.08698011     0.18030
H621        H  0.95975992  0.46775524  0.09014539     0.18040
F622        F  0.92425761  0.46450810  0.13344229    -0.19720
C623        C  0.11582902  0.49130709  0.92482706    -0.21150
C624        C  0.10947046  0.50240539  0.89736139    -0.09200
C625        C  0.08165957  0.51375119  0.89182635     0.29660
C626        C  0.06059186  0.51418124  0.91364366    -0.21150
C627        C  0.06701076  0.50316344  0.94108481    -0.09210
C628        C  0.09476810  0.49181421  0.94666567     0.29670
F629        F  0.10166469  0.48198125  0.97340892    -0.19730
H630        H  0.13726327  0.48273499  0.92945972     0.18030
H631        H  0.03912813  0.52271417  0.90904467     0.18040
F632        F  0.07463348  0.52353051  0.86510213    -0.19720
C633        C  0.89742858  0.48179649  0.91911936    -0.21150
C634        C  0.89836174  0.50246564  0.89690637    -0.09200
C635        C  0.92118035  0.52277134  0.89658178     0.29660
C636        C  0.94214999  0.52268278  0.91840458    -0.21150
C637        C  0.94110082  0.50210905  0.94061506    -0.09210
C638        C  0.91859682  0.48155144  0.94078999     0.29670
F639        F  0.91647778  0.46188924  0.96243107    -0.19730
H640        H  0.87997720  0.46610444  0.92004431     0.18030
H641        H  0.95957572  0.53843755  0.91767418     0.18040
F642        F  0.92385385  0.54213869  0.87475671    -0.19720
loop_ 
_geom_bond_atom_site_label_1 
_geom_bond_atom_site_label_2 
_geom_bond_distance 
_geom_bond_site_symmetry_2 
_ccdc_geom_bond_type 
N1            N2   1.323       .  A
N1            C5   1.345       .  A
N1           Cu9   2.074       .  S
N2            C3   1.345       .  A
N2           Cu8   2.074       .  S
C3            C4   1.380       .  A
C3            H6   1.082       .  S
C4            C5   1.380       .  A
C4          C292   1.462       .  S
C5            H7   1.082       .  S
Cu8          N11   2.073       .  S
Cu9          N19   2.074       .  S
Cu10         N12   2.073       .  S
Cu10         N18   2.073       .  S
N11          N12   1.323       .  A
N11          C15   1.345       .  A
N12          C13   1.345       .  A
C13          C14   1.380       .  A
C13          H16   1.082       .  S
C14          C15   1.380       .  A
C14         C426   1.463       .  S
C15          H17   1.082       .  S
N18          N19   1.323       .  A
N18          C22   1.345       .  A
N19          C20   1.346       .  A
C20          C21   1.380       .  A
C20          H23   1.082       .  S
C21          C22   1.380       .  A
C21         C182   1.463       .  S
C22          H24   1.082       .  S
N25          N26   1.323       .  A
N25          C29   1.345       .  A
N25         Cu33   2.073       .  S
N26          C27   1.345       .  A
N26         Cu32   2.074       .  S
C27          C28   1.380       .  A
C27          H30   1.082       .  S
C28          C29   1.380       .  A
C28         C306   1.463       .  S
C29          H31   1.082       .  S
Cu32         N35   2.074       .  S
Cu33         N43   2.073       .  S
Cu34         N36   2.071       .  S
Cu34         N42   2.071       .  S
N35          N36   1.323       .  A
N35          C39   1.345       .  A
N36          C37   1.345       .  A
C37          C38   1.379       .  A
C37          H40   1.082       .  S
C38          C39   1.380       .  A
C38         C474   1.462       .  S
C39          H41   1.082       .  S
N42          N43   1.323       .  A
N42          C46   1.345       .  A
N43          C44   1.345       .  A
C44          C45   1.380       .  A
C44          H47   1.082       .  S
C45          C46   1.380       .  A
C45         C172   1.462       .  S
C46          H48   1.082       .  S
N49          N50   1.323       .  A
N49          C53   1.345       .  A
N49         Cu57   2.072       .  S
N50          C51   1.345       .  A
N50         Cu56   2.072       .  S
C51          C52   1.380       .  A
C51          H54   1.082       .  S
C52          C53   1.380       .  A
C52         C316   1.462       .  S
C53          H55   1.082       .  S
Cu56         N59   2.072       .  S
Cu57         N67   2.072       .  S
Cu58         N60   2.077       .  S
Cu58         N66   2.077       .  S
N59          N60   1.323       .  A
N59          C63   1.345       .  A
N60          C61   1.346       .  A
C61          C62   1.381       .  A
C61          H64   1.082       .  S
C62          C63   1.380       .  A
C62         C498   1.464       .  S
C63          H65   1.082       .  S
N66          N67   1.323       .  A
N66          C70   1.346       .  A
N67          C68   1.345       .  A
C68          C69   1.379       .  A
C68          H71   1.082       .  S
C69          C70   1.381       .  A
C69         C206   1.463       .  S
C70          H72   1.082       .  S
N73          N74   1.323       .  A
N73          C77   1.345       .  A
N73         Cu81   2.075       .  S
N74          C75   1.345       .  A
N74         Cu80   2.072       .  S
C75          C76   1.380       .  A
C75          H78   1.082       .  S
C76          C77   1.380       .  A
C76         C282   1.463       .  S
C77          H79   1.082       .  S
Cu80         N83   2.072       .  S
Cu81         N91   2.075       .  S
Cu82         N84   2.073       .  S
Cu82         N90   2.073       .  S
N83          N84   1.323       .  A
N83          C87   1.345       .  A
N84          C85   1.345       .  A
C85          C86   1.380       .  A
C85          H88   1.082       .  S
C86          C87   1.380       .  A
C86         C450   1.462       .  S
C87          H89   1.082       .  S
N90          N91   1.323       .  A
N90          C94   1.345       .  A
N91          C92   1.346       .  A
C92          C93   1.381       .  A
C92          H95   1.082       .  S
C93          C94   1.380       .  A
C93         C196   1.463       .  S
C94          H96   1.082       .  S
N97          N98   1.323       .  A
N97         C101   1.345       .  A
N97        Cu105   2.071       .  S
N98          C99   1.345       .  A
N98        Cu104   2.074       .  S
C99         C100   1.380       .  A
C99         H102   1.082       .  S
C100        C101   1.379       .  A
C100        C330   1.462       .  S
C101        H103   1.082       .  S
Cu104       N107   2.074       .  S
Cu105       N115   2.071       .  S
Cu106       N108   2.072       .  S
Cu106       N114   2.072       .  S
N107        N108   1.323       .  A
N107        C111   1.346       .  A
N108        C109   1.345       .  A
C109        C110   1.379       .  A
C109        H112   1.082       .  S
C110        C111   1.380       .  A
C110        C244   1.462       .  S
C111        H113   1.082       .  S
N114        N115   1.323       .  A
N114        C118   1.345       .  A
N115        C116   1.345       .  A
C116        C117   1.380       .  A
C116        H119   1.082       .  S
C117        C118   1.380       .  A
C117        C440   1.462       .  S
C118        H120   1.082       .  S
N121        N122   1.323       .  A
N121        C125   1.345       .  A
N121       Cu129   2.074       .  S
N122        C123   1.345       .  A
N122       Cu128   2.073       .  S
C123        C124   1.380       .  A
C123        H126   1.082       .  S
C124        C125   1.380       .  A
C124        C340   1.462       .  S
C125        H127   1.082       .  S
Cu128       N131   2.072       .  S
Cu129       N139   2.074       .  S
Cu130       N132   2.072       .  S
Cu130       N138   2.072       .  S
N131        N132   1.323       .  A
N131        C135   1.345       .  A
N132        C133   1.345       .  A
C133        C134   1.380       .  A
C133        H136   1.082       .  S
C134        C135   1.380       .  A
C134        C230   1.462       .  S
C135        H137   1.082       .  S
N138        N139   1.323       .  A
N138        C142   1.345       .  A
N139        C140   1.345       .  A
C140        C141   1.380       .  A
C140        H143   1.082       .  S
C141        C142   1.379       .  A
C141        C416   1.462       .  S
C142        H144   1.082       .  S
N145        N146   1.323       .  A
N145        C149   1.345       .  A
N145       Cu153   2.073       .  S
N146        C147   1.345       .  A
N146       Cu152   2.073       .  S
C147        C148   1.380       .  A
C147        H150   1.082       .  S
C148        C149   1.380       .  A
C148        C354   1.462       .  S
C149        H151   1.082       .  S
Cu152       N155   2.073       .  S
Cu153       N163   2.072       .  S
Cu154       N156   2.074       .  S
Cu154       N162   2.074       .  S
N155        N156   1.323       .  A
N155        C159   1.345       .  A
N156        C157   1.345       .  A
C157        C158   1.380       .  A
C157        H160   1.082       .  S
C158        C159   1.380       .  A
C158        C220   1.462       .  S
C159        H161   1.082       .  S
N162        N163   1.323       .  A
N162        C166   1.345       .  A
N163        C164   1.345       .  A
C164        C165   1.380       .  A
C164        H167   1.082       .  S
C165        C166   1.380       .  A
C165        C464   1.463       .  S
C166        H168   1.082       .  S
N169        N170   1.323       .  A
N169        C173   1.345       .  A
N169       Cu177   2.071       .  S
N170        C171   1.345       .  A
N170       Cu176   2.074       .  S
C171        C172   1.380       .  A
C171        H174   1.082       .  S
C172        C173   1.380       .  A
C173        H175   1.082       .  S
Cu176       N179   2.074       .  S
Cu177       N187   2.071       .  S
Cu178       N180   2.073       .  S
Cu178       N186   2.073       .  S
N179        N180   1.323       .  A
N179        C183   1.345       .  A
N180        C181   1.346       .  A
C181        C182   1.380       .  A
C181        H184   1.082       .  S
C182        C183   1.380       .  A
C183        H185   1.082       .  S
N186        N187   1.322       .  A
N186        C190   1.344       .  A
N187        C188   1.344       .  A
C188        C189   1.385       .  A
C188        H191   1.082       .  S
C189        C190   1.386       .  A
C189        C634   1.481       .  S
C190        H192   1.081       .  S
N193        N194   1.323       .  A
N193        C197   1.346       .  A
N193       Cu201   2.074       .  S
N194        C195   1.345       .  A
N194       Cu200   2.072       .  S
C195        C196   1.380       .  A
C195        H198   1.082       .  S
C196        C197   1.381       .  A
C197        H199   1.082       .  S
Cu200       N203   2.072       .  S
Cu201       N211   2.074       .  S
Cu202       N204   2.075       .  S
Cu202       N210   2.074       .  S
N203        N204   1.323       .  A
N203        C207   1.345       .  A
N204        C205   1.346       .  A
C205        C206   1.381       .  A
C205        H208   1.082       .  S
C206        C207   1.380       .  A
C207        H209   1.082       .  S
N210        N211   1.323       .  A
N210        C214   1.345       .  A
N211        C212   1.345       .  A
C212        C213   1.382       .  A
C212        H215   1.082       .  S
C213        C214   1.382       .  A
C213        C624   1.471       .  S
C214        H216   1.082       .  S
N217        N218   1.323       .  A
N217        C221   1.345       .  A
N217       Cu225   2.071       .  S
N218        C219   1.345       .  A
N218       Cu224   2.073       .  S
C219        C220   1.380       .  A
C219        H222   1.082       .  S
C220        C221   1.380       .  A
C221        H223   1.082       .  S
Cu224       N227   2.073       .  S
Cu225       N235   2.071       .  S
Cu226       N228   2.072       .  S
Cu226       N234   2.072       .  S
N227        N228   1.323       .  A
N227        C231   1.345       .  A
N228        C229   1.345       .  A
C229        C230   1.380       .  A
C229        H232   1.082       .  S
C230        C231   1.380       .  A
C231        H233   1.082       .  S
N234        N235   1.322       .  A
N234        C238   1.344       .  A
N235        C236   1.344       .  A
C236        C237   1.385       .  A
C236        H239   1.081       .  S
C237        C238   1.385       .  A
C237        C614   1.479       .  S
C238        H240   1.082       .  S
N241        N242   1.323       .  A
N241        C245   1.345       .  A
N241       Cu249   2.070       .  S
N242        C243   1.345       .  A
N242       Cu248   2.074       .  S
C243        C244   1.380       .  A
C243        H246   1.082       .  S
C244        C245   1.380       .  A
C245        H247   1.082       .  S
Cu248       N251   2.074       .  S
Cu249       N259   2.070       .  S
Cu250       N252   2.076       .  S
Cu250       N258   2.075       .  S
N251        N252   1.323       .  A
N251        C255   1.345       .  A
N252        C253   1.346       .  A
C253        C254   1.381       .  A
C253        H256   1.082       .  S
C254        C255   1.380       .  A
C254        C402   1.464       .  S
C255        H257   1.082       .  S
N258        N259   1.322       .  A
N258        C262   1.345       .  A
N259        C260   1.345       .  A
C260        C261   1.382       .  A
C260        H263   1.082       .  S
C261        C262   1.383       .  A
C261        C604   1.473       .  S
C262        H264   1.082       .  S
O265       Cu273   2.013   1_656  S
O265        C275   1.278       .  A
O266       Cu273   2.001       .  S
O266        C276   1.276       .  A
O267       Cu273   2.008   1_655  S
O267        C277   1.278       .  A
O268       Cu273   2.006   1_556  S
O268        C278   1.277       .  A
O269       Cu274   2.007   1_556  S
O269        C278   1.277       .  A
O270       Cu274   2.005   1_655  S
O270        C277   1.277       .  A
O271       Cu274   2.013       .  S
O271        C276   1.278       .  A
O272       Cu274   2.001   1_656  S
O272        C275   1.277       .  A
Cu273      Cu274   2.376       .  S
C275        C637   1.474       .  S
C276        C607   1.468       .  S
C277        C617   1.473       .  S
C278        C627   1.465       .  S
N279        N280   1.323       .  A
N279        C283   1.346       .  A
N279       Cu287   2.075       .  S
N280        C281   1.345       .  A
N280       Cu286   2.072       .  S
C281        C282   1.379       .  A
C281        H284   1.082       .  S
C282        C283   1.380       .  A
C283        H285   1.082       .  S
Cu286       N289   2.072       .  S
Cu287       N297   2.075       .  S
Cu288       N290   2.073       .  S
Cu288       N296   2.073       .  S
N289        N290   1.323       .  A
N289        C293   1.345       .  A
N290        C291   1.345       .  A
C291        C292   1.380       .  A
C291        H294   1.082       .  S
C292        C293   1.380       .  A
C293        H295   1.082       .  S
N296        N297   1.321       .  A
N296        C300   1.344       .  A
N297        C298   1.344       .  A
C298        C299   1.389       .  A
C298        H301   1.080       .  S
C299        C300   1.388       .  A
C299        C594   1.488       .  S
C300        H302   1.081       .  S
N303        N304   1.323       .  A
N303        C307   1.345       .  A
N303       Cu311   2.073       .  S
N304        C305   1.345       .  A
N304       Cu310   2.074       .  S
C305        C306   1.380       .  A
C305        H308   1.082       .  S
C306        C307   1.380       .  A
C307        H309   1.082       .  S
Cu310       N313   2.074       .  S
Cu311       N321   2.073       .  S
Cu312       N314   2.072       .  S
Cu312       N320   2.073       .  S
N313        N314   1.323       .  A
N313        C317   1.345       .  A
N314        C315   1.345       .  A
C315        C316   1.379       .  A
C315        H318   1.082       .  S
C316        C317   1.380       .  A
C317        H319   1.082       .  S
N320        N321   1.321       .  A
N320        C324   1.344       .  A
N321        C322   1.344       .  A
C322        C323   1.388       .  A
C322        H325   1.080       .  S
C323        C324   1.387       .  A
C323        C587   1.486       .  S
C324        H326   1.081       .  S
N327        N328   1.323       .  A
N327        C331   1.345       .  A
N327       Cu335   2.071       .  S
N328        C329   1.345       .  A
N328       Cu334   2.073       .  S
C329        C330   1.380       .  A
C329        H332   1.082       .  S
C330        C331   1.379       .  A
C331        H333   1.082       .  S
Cu334       N337   2.073       .  S
Cu335       N345   2.071       .  S
Cu336       N338   2.074       .  S
Cu336       N344   2.074       .  S
N337        N338   1.323       .  A
N337        C341   1.345       .  A
N338        C339   1.345       .  A
C339        C340   1.380       .  A
C339        H342   1.082       .  S
C340        C341   1.380       .  A
C341        H343   1.082       .  S
N344        N345   1.321       .  A
N344        C348   1.345       .  A
N345        C346   1.344       .  A
C346        C347   1.387       .  A
C346        H349   1.081       .  S
C347        C348   1.387       .  A
C347        C574   1.484       .  S
C348        H350   1.081       .  S
N351        N352   1.323       .  A
N351        C355   1.345       .  A
N351       Cu359   2.073       .  S
N352        C353   1.345       .  A
N352       Cu358   2.072       .  S
C353        C354   1.380       .  A
C353        H356   1.082       .  S
C354        C355   1.380       .  A
C355        H357   1.082       .  S
Cu358       N361   2.073       .  S
Cu359       N369   2.073       .  S
Cu360       N362   2.074       .  S
Cu360       N368   2.074       .  S
N361        N362   1.323       .  A
N361        C365   1.345       .  A
N362        C363   1.346       .  A
C363        C364   1.380       .  A
C363        H366   1.082       .  S
C364        C365   1.380       .  A
C364        C392   1.462       .  S
C365        H367   1.082       .  S
N368        N369   1.321       .  A
N368        C372   1.344       .  A
N369        C370   1.344       .  A
C370        C371   1.389       .  A
C370        H373   1.080       .  S
C371        C372   1.389       .  A
C371        C564   1.489       .  S
C372        H374   1.081       .  S
O375       Cu383   2.008   1_556  S
O375        C385   1.278       .  A
O376       Cu383   2.008   1_565  S
O376        C386   1.278       .  A
O377       Cu383   2.010   1_566  S
O377        C387   1.278       .  A
O378       Cu383   2.008       .  S
O378        C388   1.278       .  A
O379       Cu384   2.010       .  S
O379        C388   1.278       .  A
O380       Cu384   2.008   1_566  S
O380        C387   1.278       .  A
O381       Cu384   2.009   1_565  S
O381        C386   1.278       .  A
O382       Cu384   2.009   1_556  S
O382        C385   1.278       .  A
Cu383      Cu384   2.370       .  S
C385        C584   1.482       .  S
C386        C577   1.478       .  S
C387        C597   1.483       .  S
C388        C567   1.483       .  S
N389        N390   1.323       .  A
N389        C393   1.345       .  A
N389       Cu397   2.073       .  S
N390        C391   1.345       .  A
N390       Cu396   2.075       .  S
C391        C392   1.380       .  A
C391        H394   1.082       .  S
C392        C393   1.380       .  A
C393        H395   1.082       .  S
Cu396       N399   2.075       .  S
Cu397       N407   2.073       .  S
Cu398       N400   2.074       .  S
Cu398       N406   2.073       .  S
N399        N400   1.323       .  A
N399        C403   1.346       .  A
N400        C401   1.345       .  A
C401        C402   1.380       .  A
C401        H404   1.082       .  S
C402        C403   1.380       .  A
C403        H405   1.082       .  S
N406        N407   1.323       .  A
N406        C410   1.345       .  A
N407        C408   1.346       .  A
C408        C409   1.380       .  A
C408        H411   1.082       .  S
C409        C410   1.380       .  A
C409        C488   1.462       .  S
C410        H412   1.082       .  S
N413        N414   1.323       .  A
N413        C417   1.345       .  A
N413       Cu421   2.072       .  S
N414        C415   1.345       .  A
N414       Cu420   2.074       .  S
C415        C416   1.380       .  A
C415        H418   1.082       .  S
C416        C417   1.380       .  A
C417        H419   1.082       .  S
Cu420       N423   2.074       .  S
Cu421       N431   2.071       .  S
Cu422       N424   2.072       .  S
Cu422       N430   2.072       .  S
N423        N424   1.323       .  A
N423        C427   1.345       .  A
N424        C425   1.345       .  A
C425        C426   1.380       .  A
C425        H428   1.082       .  S
C426        C427   1.380       .  A
C427        H429   1.082       .  S
N430        N431   1.321       .  A
N430        C434   1.344       .  A
N431        C432   1.344       .  A
C432        C433   1.385       .  A
C432        H435   1.082       .  S
C433        C434   1.386       .  A
C433        C554   1.481       .  S
C434        H436   1.081       .  S
N437        N438   1.323       .  A
N437        C441   1.345       .  A
N437       Cu445   2.072       .  S
N438        C439   1.345       .  A
N438       Cu444   2.074       .  S
C439        C440   1.380       .  A
C439        H442   1.082       .  S
C440        C441   1.380       .  A
C441        H443   1.082       .  S
Cu444       N447   2.074       .  S
Cu445       N455   2.072       .  S
Cu446       N448   2.070       .  S
Cu446       N454   2.070       .  S
N447        N448   1.323       .  A
N447        C451   1.345       .  A
N448        C449   1.345       .  A
C449        C450   1.379       .  A
C449        H452   1.082       .  S
C450        C451   1.380       .  A
C451        H453   1.082       .  S
N454        N455   1.321       .  A
N454        C458   1.344       .  A
N455        C456   1.344       .  A
C456        C457   1.386       .  A
C456        H459   1.082       .  S
C457        C458   1.386       .  A
C457        C547   1.482       .  S
C458        H460   1.081       .  S
N461        N462   1.323       .  A
N461        C465   1.346       .  A
N461       Cu469   2.073       .  S
N462        C463   1.345       .  A
N462       Cu468   2.072       .  S
C463        C464   1.380       .  A
C463        H466   1.082       .  S
C464        C465   1.380       .  A
C465        H467   1.082       .  S
Cu468       N471   2.072       .  S
Cu469       N479   2.073       .  S
Cu470       N472   2.073       .  S
Cu470       N478   2.073       .  S
N471        N472   1.323       .  A
N471        C475   1.345       .  A
N472        C473   1.346       .  A
C473        C474   1.380       .  A
C473        H476   1.082       .  S
C474        C475   1.379       .  A
C475        H477   1.082       .  S
N478        N479   1.322       .  A
N478        C482   1.345       .  A
N479        C480   1.344       .  A
C480        C481   1.384       .  A
C480        H483   1.081       .  S
C481        C482   1.384       .  A
C481        C534   1.477       .  S
C482        H484   1.082       .  S
N485        N486   1.322       .  A
N485        C489   1.345       .  A
N485       Cu493   2.070       .  S
N486        C487   1.345       .  A
N486       Cu492   2.074       .  S
C487        C488   1.380       .  A
C487        H490   1.082       .  S
C488        C489   1.380       .  A
C489        H491   1.082       .  S
Cu492       N495   2.074       .  S
Cu493       N503   2.070       .  S
Cu494       N496   2.074       .  S
Cu494       N502   2.074       .  S
N495        N496   1.323       .  A
N495        C499   1.345       .  A
N496        C497   1.346       .  A
C497        C498   1.380       .  A
C497        H500   1.082       .  S
C498        C499   1.380       .  A
C499        H501   1.082       .  S
N502        N503   1.322       .  A
N502        C506   1.345       .  A
N503        C504   1.344       .  A
C504        C505   1.384       .  A
C504        H507   1.081       .  S
C505        C506   1.385       .  A
C505        C524   1.479       .  S
C506        H508   1.082       .  S
O509       Cu517   2.007   1_665  S
O509        C519   1.278       .  A
O510       Cu517   2.004       .  S
O510        C520   1.277       .  A
O511       Cu517   2.007   1_655  S
O511        C521   1.277       .  A
O512       Cu517   2.005   1_565  S
O512        C522   1.278       .  A
O513       Cu518   2.007   1_565  S
O513        C522   1.278       .  A
O514       Cu518   2.007   1_655  S
O514        C521   1.277       .  A
O515       Cu518   2.008       .  S
O515        C520   1.278       .  A
O516       Cu518   2.006   1_665  S
O516        C519   1.278       .  A
Cu517      Cu518   2.371       .  S
C519        C557   1.475       .  S
C520        C527   1.472       .  S
C521        C537   1.471       .  S
C522        C544   1.475       .  S
C523        C524   1.405       .  A
C523        C528   1.398       .  A
C523        H530   1.083       .  S
C524        C525   1.408       .  A
C525        C526   1.398       .  A
C525        F532   1.357       .  S
C526        C527   1.402       .  A
C526        H531   1.083       .  S
C527        C528   1.405       .  A
C528        F529   1.358       .  S
C533        C534   1.404       .  A
C533        C538   1.398       .  A
C533        H540   1.083       .  S
C534        C535   1.407       .  A
C535        C536   1.398       .  A
C535        F542   1.357       .  S
C536        C537   1.402       .  A
C536        H541   1.083       .  S
C537        C538   1.405       .  A
C538        F539   1.358       .  S
C543        C544   1.403       .  A
C543        C548   1.397       .  A
C543        H550   1.083       .  S
C544        C545   1.406       .  A
C545        C546   1.398       .  A
C545        F552   1.358       .  S
C546        C547   1.406       .  A
C546        H551   1.082       .  S
C547        C548   1.409       .  A
C548        F549   1.357       .  S
C553        C554   1.405       .  A
C553        C558   1.398       .  A
C553        H560   1.083       .  S
C554        C555   1.408       .  A
C555        C556   1.397       .  A
C555        F562   1.357       .  S
C556        C557   1.403       .  A
C556        H561   1.083       .  S
C557        C558   1.406       .  A
C558        F559   1.358       .  S
C563        C564   1.407       .  A
C563        C568   1.398       .  A
C563        H570   1.081       .  S
C564        C565   1.410       .  A
C565        C566   1.398       .  A
C565        F572   1.356       .  S
C566        C567   1.405       .  A
C566        H571   1.083       .  S
C567        C568   1.408       .  A
C568        F569   1.357       .  S
C573        C574   1.406       .  A
C573        C578   1.398       .  A
C573        H580   1.082       .  S
C574        C575   1.409       .  A
C575        C576   1.398       .  A
C575        F582   1.356       .  S
C576        C577   1.403       .  A
C576        H581   1.083       .  S
C577        C578   1.406       .  A
C578        F579   1.358       .  S
C583        C584   1.405       .  A
C583        C588   1.398       .  A
C583        H590   1.083       .  S
C584        C585   1.408       .  A
C585        C586   1.398       .  A
C585        F592   1.357       .  S
C586        C587   1.406       .  A
C586        H591   1.082       .  S
C587        C588   1.409       .  A
C588        F589   1.356       .  S
C593        C594   1.407       .  A
C593        C598   1.398       .  A
C593        H600   1.082       .  S
C594        C595   1.410       .  A
C595        C596   1.398       .  A
C595        F602   1.356       .  S
C596        C597   1.405       .  A
C596        H601   1.083       .  S
C597        C598   1.408       .  A
C598        F599   1.357       .  S
C603        C604   1.404       .  A
C603        C608   1.399       .  A
C603        H610   1.083       .  S
C604        C605   1.405       .  A
C605        C606   1.397       .  A
C605        F612   1.357       .  S
C606        C607   1.402       .  A
C606        H611   1.083       .  S
C607        C608   1.404       .  A
C608        F609   1.358       .  S
C613        C614   1.405       .  A
C613        C618   1.398       .  A
C613        H620   1.083       .  S
C614        C615   1.408       .  A
C615        C616   1.397       .  A
C615        F622   1.357       .  S
C616        C617   1.403       .  A
C616        H621   1.083       .  S
C617        C618   1.405       .  A
C618        F619   1.358       .  S
C623        C624   1.403       .  A
C623        C628   1.399       .  A
C623        H630   1.083       .  S
C624        C625   1.405       .  A
C625        C626   1.398       .  A
C625        F632   1.357       .  S
C626        C627   1.401       .  A
C626        H631   1.083       .  S
C627        C628   1.403       .  A
C628        F629   1.358       .  S
C633        C634   1.406       .  A
C633        C638   1.398       .  A
C633        H640   1.083       .  S
C634        C635   1.408       .  A
C635        C636   1.397       .  A
C635        F642   1.357       .  S
C636        C637   1.403       .  A
C636        H641   1.083       .  S
C637        C638   1.405       .  A
C638        F639   1.358       .  S
