geometry optimzed in LAMMPS
_audit_creation_date              2020-12-01 
_audit_creation_method            'lammps2cif' 
_symmetry_space_group_name_H-M    'P1' 
_symmetry_Int_Tables_number       1 
_symmetry_cell_setting            triclinic 
loop_ 
_symmetry_equiv_pos_as_xyz 
  x,y,z 
_cell_length_a                    36.12765254 
_cell_length_b                    36.132462503774114 
_cell_length_c                    34.10558342297954 
_cell_angle_alpha                 100.38912103662385 
_cell_angle_beta                  79.53080629814664 
_cell_angle_gamma                 122.43977358416298 
loop_ 
_atom_site_label 
_atom_site_type_symbol 
_atom_site_fract_x 
_atom_site_fract_y 
_atom_site_fract_z 
_atom_site_charge 
C1          C  0.35357972  0.14212734  0.97306342     0.04600
C2          C  0.30771353  0.11816329  0.97180577    -0.11600
C3          C  0.28588718  0.13998773  0.96932030     0.02100
C4          C  0.30995613  0.18578932  0.96828335    -0.10100
C5          C  0.35574384  0.20985682  0.96944070     0.04600
C6          C  0.37755000  0.18801112  0.97193021    -0.09500
H7          H  0.28926707  0.08260272  0.97176080     0.10200
H8          H  0.29322340  0.20254064  0.96539623     0.07700
H9          H  0.41310241  0.20645811  0.97197811     0.07600
C10         C  0.35357771  0.14202132  0.47304061     0.04600
C11         C  0.37754866  0.18790427  0.47190062    -0.11600
C12         C  0.35574337  0.20974868  0.46940313     0.02100
C13         C  0.30995587  0.18568069  0.46824438    -0.10100
C14         C  0.28588607  0.13988016  0.46928911     0.04600
C15         C  0.30771148  0.11805706  0.47178272    -0.09500
H16         H  0.41310100  0.20635144  0.47194906     0.10200
H17         H  0.29322376  0.20243078  0.46535126     0.07700
H18         H  0.28926436  0.08249711  0.47174319     0.08000
C19         C  0.14534895  0.35064562  0.83533426     0.04600
C20         C  0.12137790  0.30476248  0.83647314    -0.11600
C21         C  0.14318269  0.28291798  0.83897206     0.02100
C22         C  0.18896982  0.30698597  0.84013327    -0.10100
C23         C  0.21303973  0.35278663  0.83908966     0.04600
C24         C  0.19121488  0.37460994  0.83659464    -0.09500
H25         H  0.08582575  0.28631522  0.83642281     0.10200
H26         H  0.20570142  0.29023577  0.84302742     0.07700
H27         H  0.20966202  0.41016986  0.83663497     0.07600
C28         C  0.14534821  0.35054022  0.33531180     0.04600
C29         C  0.19121470  0.37450435  0.33656761    -0.11600
C30         C  0.21304144  0.35268029  0.33905312     0.02100
C31         C  0.18897258  0.30687897  0.34009193    -0.10100
C32         C  0.14318461  0.28281139  0.33893652     0.04600
C33         C  0.12137804  0.30465668  0.33644689    -0.09500
H34         H  0.20966116  0.41006476  0.33661129     0.10200
H35         H  0.20570561  0.29012795  0.34297914     0.07700
H36         H  0.08582545  0.28620960  0.33640047     0.07600
N37         N  0.47021424  0.48770884  0.00267054    -0.04700
N38         N  0.46040112  0.47098196  0.03711744    -0.56800
N39         N  0.46965705  0.06391772  0.95997026    -0.04300
N40         N  0.46301456  0.09709188  0.96456875    -0.58900
N41         N  0.43181733  0.02607966  0.96001439    -0.03900
N42         N  0.39861633  0.03269884  0.96464342    -0.56700
N43         N  0.00805771  0.02555597  0.00262490    -0.03600
N44         N  0.02477674  0.03536368  0.03703869    -0.59300
C45         C  0.99486535  0.50089397  0.05798524     0.97500
C46         C  0.41864746  0.07704938  0.96754254     0.97300
N47         N  0.07008713  0.09227204  0.86553654    -0.04800
N48         N  0.08665552  0.12301462  0.84074743    -0.57300
N49         N  0.09532042  0.06700238  0.94269338    -0.03000
N50         N  0.12602672  0.08352638  0.96745402    -0.58600
N51         N  0.10851037  0.05363527  0.90745635    -0.04900
N52         N  0.14831910  0.06066173  0.90754704    -0.57600
N53         N  0.05666490  0.10540426  0.90077546    -0.02600
N54         N  0.06369450  0.14520410  0.90065695    -0.58700
Mn55       Mn  0.03291589  0.06645434  0.95230637     1.18400
C56         C  0.08187265  0.15545946  0.86299670     0.99600
C57         C  0.15851399  0.07877981  0.94518946     1.00300
N58         N  0.39041571  0.43913873  0.90095472    -0.04900
N59         N  0.35060767  0.43211375  0.90086369    -0.61200
N60         N  0.44226135  0.38736922  0.90763817    -0.03700
N61         N  0.43523241  0.34756993  0.90775841    -0.61900
N62         N  0.42883738  0.40050160  0.94287596    -0.04400
N63         N  0.41226891  0.36976012  0.96766622    -0.61500
N64         N  0.40360516  0.42576999  0.86571846    -0.03300
N65         N  0.37289913  0.40924647  0.84095763    -0.62100
Mn66       Mn  0.42933320  0.46286339  0.95242367     1.10700
C67         C  0.34041263  0.41399493  0.86322155     1.00800
C68         C  0.41705319  0.33731542  0.94541869     1.00900
N69         N  0.06710932  0.46669368  0.84839449    -0.04400
N70         N  0.10031107  0.46007475  0.84375929    -0.59800
N71         N  0.49086586  0.46721343  0.80578668    -0.03700
N72         N  0.47414826  0.45739669  0.77137089    -0.56500
N73         N  0.02870879  0.00506130  0.80573777    -0.05000
N74         N  0.03852271  0.02177898  0.77128522    -0.59300
N75         N  0.02926981  0.42885534  0.84844039    -0.04000
N76         N  0.03591326  0.39568135  0.84383667    -0.56500
Mn77       Mn  0.06959200  0.02990996  0.85598636     1.20200
Mn78       Mn  0.46600998  0.42631795  0.85610629     1.10100
Cl79       Cl  0.49946315  0.49638650  0.90420561    -0.84500
C80         C  0.08028068  0.41572408  0.84085812     0.97800
C81         C  0.50405869  0.49186117  0.75041851     0.97600
N82         N  0.47021385  0.48760453  0.50263925    -0.04700
N83         N  0.46039598  0.47088848  0.53709330    -0.56800
N84         N  0.46965636  0.06381131  0.45993547    -0.04300
N85         N  0.46301319  0.09698541  0.46453878    -0.58900
N86         N  0.43181674  0.02597299  0.45998016    -0.03900
N87         N  0.39861525  0.03259210  0.46461409    -0.56700
N88         N  0.00805680  0.02545241  0.50259159    -0.03600
N89         N  0.02477041  0.03527075  0.53700980    -0.59300
C90         C  0.99485763  0.50080727  0.55796234     0.97500
C91         C  0.41864588  0.07694279  0.46751570     0.97300
N92         N  0.07009199  0.09216728  0.36550356    -0.04800
N93         N  0.08666114  0.12290921  0.34071369    -0.57300
N94         N  0.09532012  0.06689561  0.44266156    -0.03000
N95         N  0.12602544  0.08341874  0.46742311    -0.58600
N96         N  0.10851050  0.05352757  0.40742541    -0.04900
N97         N  0.14831839  0.06055254  0.40751724    -0.57600
N98         N  0.05666711  0.10529904  0.40074115    -0.02600
N99         N  0.06369617  0.14509846  0.40062123    -0.58700
Mn100      Mn  0.03291571  0.06634854  0.45227205     1.18400
C101        C  0.08187641  0.15535361  0.36296127     0.99600
C102        C  0.15851241  0.07867065  0.44515973     1.00300
N103        N  0.39041703  0.43903234  0.40091749    -0.04900
N104        N  0.35060842  0.43200585  0.40082601    -0.61200
N105        N  0.44226181  0.38726291  0.40759915    -0.03700
N106        N  0.43523227  0.34746303  0.40771737    -0.61900
N107        N  0.42883870  0.40039451  0.44283798    -0.04400
N108        N  0.41226984  0.36965149  0.46762669    -0.61500
N109        N  0.40360795  0.42566601  0.36568061    -0.03300
N110        N  0.37290245  0.40914253  0.34091919    -0.62100
Mn111      Mn  0.42933351  0.46275657  0.45238857     1.10700
C112        C  0.34041465  0.41388858  0.36318323     1.00800
C113        C  0.41705326  0.33720701  0.44537733     1.00900
N114        N  0.06711079  0.46658854  0.34836318    -0.04400
N115        N  0.10031162  0.45996909  0.34373425    -0.59800
N116        N  0.49087195  0.46711489  0.30575196    -0.03700
N117        N  0.47415213  0.45731029  0.27133914    -0.56500
N118        N  0.02871547  0.00496200  0.30570761    -0.05000
N119        N  0.03852784  0.02169197  0.27126251    -0.59300
N120        N  0.02927101  0.42875055  0.34840606    -0.04000
N121        N  0.03591326  0.39557617  0.34380681    -0.56500
Mn122      Mn  0.06959529  0.02980513  0.35595515     1.20200
Mn123      Mn  0.46601245  0.42621425  0.35606894     1.10100
Cl124      Cl  0.49946390  0.49628091  0.40417139    -0.84500
C125        C  0.08028032  0.41561846  0.34083393     0.97800
C126        C  0.50406313  0.49178179  0.25039443     0.97600
C127        C  0.99729397  0.49838224  0.59898607    -0.17000
C128        C  0.49873446  0.49700641  0.63375433     0.07000
C129        C  0.50017509  0.49566499  0.67462924     0.08900
C130        C  0.50161775  0.49428820  0.70939668    -0.17900
C131        C  0.49731057  0.49844627  0.09899904    -0.17000
C132        C  0.49874758  0.49703533  0.13375862     0.07000
C133        C  0.50017910  0.49564582  0.17462306     0.08900
C134        C  0.50161683  0.49423313  0.20938202    -0.17900
C135        C  0.10045020  0.19844645  0.35054840    -0.11800
C136        C  0.11861507  0.23630960  0.34353665    -0.13400
C137        C  0.29734764  0.39536327  0.35078949    -0.11800
C138        C  0.25951266  0.37722669  0.34374378    -0.13400
C139        C  0.12257144  0.37333077  0.33532207    -0.11800
C140        C  0.10334163  0.39257476  0.33703167    -0.13400
C141        C  0.11861210  0.23641641  0.84357381    -0.11800
C142        C  0.10044682  0.19855301  0.85058511    -0.13400
C143        C  0.29734529  0.39546989  0.85082878    -0.11800
C144        C  0.25951037  0.37733329  0.84378287    -0.13400
C145        C  0.12257305  0.37343621  0.83533956    -0.11800
C146        C  0.10334326  0.39268054  0.83705007    -0.13400
C147        C  0.37635387  0.11923084  0.47303421    -0.11800
C148        C  0.39558364  0.09998648  0.47132336    -0.13400
C149        C  0.38031373  0.25625004  0.46480042    -0.11800
C150        C  0.39847902  0.29411330  0.45778865    -0.13400
C151        C  0.20157968  0.09719629  0.45755293    -0.11800
C152        C  0.23941492  0.11533330  0.46459803    -0.13400
C153        C  0.39558594  0.10009276  0.97134454    -0.11800
C154        C  0.37635621  0.11933668  0.97305357    -0.13400
C155        C  0.38031377  0.25635904  0.96484246    -0.11800
C156        C  0.39847907  0.29422252  0.95783159    -0.13400
C157        C  0.23941628  0.11544162  0.96462839    -0.11800
C158        C  0.20158138  0.09730518  0.95758241    -0.13400
C159        C  0.35357977  0.64212731  0.97306346     0.04600
C160        C  0.30771354  0.61816318  0.97180577    -0.11600
C161        C  0.28588723  0.63998770  0.96932030     0.02100
C162        C  0.30995619  0.68578927  0.96828335    -0.10100
C163        C  0.35574388  0.70985679  0.96944070     0.04600
C164        C  0.37755005  0.68801108  0.97193021    -0.09500
H165        H  0.28926710  0.58260276  0.97176082     0.10200
H166        H  0.29322344  0.70254060  0.96539623     0.07700
H167        H  0.41310245  0.70645809  0.97197813     0.07600
C168        C  0.35357770  0.64202132  0.47304061     0.04600
C169        C  0.37754866  0.68790428  0.47190062    -0.11600
C170        C  0.35574338  0.70974868  0.46940312     0.02100
C171        C  0.30995587  0.68568070  0.46824439    -0.10100
C172        C  0.28588607  0.63988018  0.46928912     0.04600
C173        C  0.30771147  0.61805707  0.47178271    -0.09500
H174        H  0.41310105  0.70635144  0.47194906     0.10200
H175        H  0.29322379  0.70243079  0.46535127     0.07700
H176        H  0.28926432  0.58249712  0.47174319     0.08000
C177        C  0.14534893  0.85064559  0.83533426     0.04600
C178        C  0.12137789  0.80476247  0.83647314    -0.11600
C179        C  0.14318267  0.78291798  0.83897206     0.02100
C180        C  0.18896983  0.80698598  0.84013327    -0.10100
C181        C  0.21303972  0.85278665  0.83908967     0.04600
C182        C  0.19121485  0.87460993  0.83659464    -0.09500
H183        H  0.08582574  0.78631521  0.83642282     0.10200
H184        H  0.20570140  0.79023578  0.84302740     0.07700
H185        H  0.20966196  0.91016984  0.83663497     0.07600
C186        C  0.14534818  0.85054023  0.33531180     0.04600
C187        C  0.19121466  0.87450435  0.33656761    -0.11600
C188        C  0.21304139  0.85268029  0.33905312     0.02100
C189        C  0.18897251  0.80687897  0.34009193    -0.10100
C190        C  0.14318455  0.78281139  0.33893652     0.04600
C191        C  0.12137793  0.80465666  0.33644689    -0.09500
H192        H  0.20966112  0.91006476  0.33661129     0.10200
H193        H  0.20570555  0.79012795  0.34297914     0.07700
H194        H  0.08582544  0.78620966  0.33640047     0.07600
N195        N  0.47021418  0.98770884  0.00267055    -0.04700
N196        N  0.46040106  0.97098200  0.03711749    -0.56800
N197        N  0.46965704  0.56391770  0.95997025    -0.04300
N198        N  0.46301457  0.59709187  0.96456874    -0.58900
N199        N  0.43181731  0.52607965  0.96001439    -0.03900
N200        N  0.39861631  0.53269882  0.96464342    -0.56700
N201        N  0.00805761  0.52555599  0.00262492    -0.03600
N202        N  0.02477668  0.53536369  0.03703867    -0.59300
C203        C  0.99486538  0.00089397  0.05798525     0.97500
C204        C  0.41864747  0.57704937  0.96754253     0.97300
N205        N  0.07008707  0.59227204  0.86553655    -0.04800
N206        N  0.08665545  0.62301462  0.84074743    -0.57300
N207        N  0.09532042  0.56700239  0.94269335    -0.03000
N208        N  0.12602671  0.58352639  0.96745401    -0.58600
N209        N  0.10851035  0.55363528  0.90745634    -0.04900
N210        N  0.14831910  0.56066172  0.90754705    -0.57600
N211        N  0.05666483  0.60540426  0.90077546    -0.02600
N212        N  0.06369443  0.64520410  0.90065695    -0.58700
Mn213      Mn  0.03291583  0.56645434  0.95230637     1.18400
C214        C  0.08187258  0.65545947  0.86299670     0.99600
C215        C  0.15851398  0.57877981  0.94518946     1.00300
N216        N  0.39041579  0.93913874  0.90095464    -0.04900
N217        N  0.35060773  0.93211374  0.90086367    -0.61200
N218        N  0.44226127  0.88736921  0.90763815    -0.03700
N219        N  0.43523240  0.84756995  0.90775842    -0.61900
N220        N  0.42883730  0.90050158  0.94287595    -0.04400
N221        N  0.41226889  0.86976012  0.96766623    -0.61500
N222        N  0.40360520  0.92577001  0.86571837    -0.03300
N223        N  0.37289913  0.90924646  0.84095756    -0.62100
Mn224      Mn  0.42933318  0.96286339  0.95242365     1.10700
C225        C  0.34041265  0.91399492  0.86322154     1.00800
C226        C  0.41705325  0.83731546  0.94541872     1.00900
N227        N  0.06710939  0.96669370  0.84839450    -0.04400
N228        N  0.10031111  0.96007476  0.84375929    -0.59800
N229        N  0.49086598  0.96721339  0.80578665    -0.03700
N230        N  0.47414834  0.95739662  0.77137087    -0.56500
N231        N  0.02870874  0.50506131  0.80573778    -0.05000
N232        N  0.03852264  0.52177902  0.77128525    -0.59300
N233        N  0.02926985  0.92885534  0.84844039    -0.04000
N234        N  0.03591332  0.89568136  0.84383667    -0.56500
Mn235      Mn  0.06959197  0.52990997  0.85598636     1.20200
Mn236      Mn  0.46600999  0.92631794  0.85610626     1.10100
Cl237      Cl  0.49946311  0.99638650  0.90420560    -0.84500
C238        C  0.08028073  0.91572408  0.84085812     0.97800
C239        C  0.50405865  0.99186118  0.75041854     0.97600
N240        N  0.47021395  0.98760453  0.50263924    -0.04700
N241        N  0.46039603  0.97088851  0.53709331    -0.56800
N242        N  0.46965631  0.56381132  0.45993547    -0.04300
N243        N  0.46301315  0.59698543  0.46453878    -0.58900
N244        N  0.43181672  0.52597301  0.45998016    -0.03900
N245        N  0.39861520  0.53259209  0.46461409    -0.56700
N246        N  0.00805690  0.52545239  0.50259158    -0.03600
N247        N  0.02477043  0.53527078  0.53700984    -0.59300
C248        C  0.99485764  0.00080723  0.55796231     0.97500
C249        C  0.41864583  0.57694278  0.46751570     0.97300
N250        N  0.07009190  0.59216724  0.36550355    -0.04800
N251        N  0.08666112  0.62290919  0.34071369    -0.57300
N252        N  0.09532019  0.56689562  0.44266159    -0.03000
N253        N  0.12602552  0.58341871  0.46742312    -0.58600
N254        N  0.10851054  0.55352760  0.40742542    -0.04900
N255        N  0.14831843  0.56055254  0.40751719    -0.57600
N256        N  0.05666708  0.60529903  0.40074115    -0.02600
N257        N  0.06369619  0.64509847  0.40062123    -0.58700
Mn258      Mn  0.03291579  0.56634853  0.45227206     1.18400
C259        C  0.08187651  0.65535364  0.36296129     0.99600
C260        C  0.15851246  0.57867061  0.44515969     1.00300
N261        N  0.39041704  0.93903235  0.40091752    -0.04900
N262        N  0.35060845  0.93200586  0.40082600    -0.61200
N263        N  0.44226175  0.88726289  0.40759915    -0.03700
N264        N  0.43523219  0.84746302  0.40771736    -0.61900
N265        N  0.42883868  0.90039451  0.44283798    -0.04400
N266        N  0.41226978  0.86965149  0.46762669    -0.61500
N267        N  0.40360796  0.92566602  0.36568063    -0.03300
N268        N  0.37290247  0.90914252  0.34091921    -0.62100
Mn269      Mn  0.42933360  0.96275659  0.45238856     1.10700
C270        C  0.34041466  0.91388857  0.36318321     1.00800
C271        C  0.41705318  0.83720700  0.44537733     1.00900
N272        N  0.06711074  0.96658853  0.34836318    -0.04400
N273        N  0.10031155  0.95996907  0.34373425    -0.59800
N274        N  0.49087193  0.96711492  0.30575198    -0.03700
N275        N  0.47415212  0.95731033  0.27133915    -0.56500
N276        N  0.02871558  0.50496199  0.30570756    -0.05000
N277        N  0.03852799  0.52169193  0.27126245    -0.59300
N278        N  0.02927096  0.92875055  0.34840605    -0.04000
N279        N  0.03591320  0.89557617  0.34380681    -0.56500
Mn280      Mn  0.06959529  0.52980513  0.35595515     1.20200
Mn281      Mn  0.46601243  0.92621426  0.35606895     1.10100
Cl282      Cl  0.49946404  0.99628090  0.40417140    -0.84500
C283        C  0.08028027  0.91561844  0.34083392     0.97800
C284        C  0.50406320  0.99178177  0.25039442     0.97600
C285        C  0.99729393  0.99838225  0.59898607    -0.17000
C286        C  0.49873445  0.99700641  0.63375433     0.07000
C287        C  0.50017501  0.99566499  0.67462926     0.08900
C288        C  0.50161766  0.99428819  0.70939670    -0.17900
C289        C  0.49731069  0.99844624  0.09899901    -0.17000
C290        C  0.49874779  0.99703532  0.13375858     0.07000
C291        C  0.50017925  0.99564583  0.17462305     0.08900
C292        C  0.50161687  0.99423315  0.20938203    -0.17900
C293        C  0.10045035  0.69844648  0.35054841    -0.11800
C294        C  0.11861505  0.73630960  0.34353664    -0.13400
C295        C  0.29734764  0.89536327  0.35078946    -0.11800
C296        C  0.25951262  0.87722671  0.34374378    -0.13400
C297        C  0.12257144  0.87333081  0.33532207    -0.11800
C298        C  0.10334160  0.89257476  0.33703167    -0.13400
C299        C  0.11861205  0.73641642  0.84357382    -0.11800
C300        C  0.10044675  0.69855302  0.85058511    -0.13400
C301        C  0.29734528  0.89546987  0.85082882    -0.11800
C302        C  0.25951037  0.87733332  0.84378289    -0.13400
C303        C  0.12257305  0.87343619  0.83533955    -0.11800
C304        C  0.10334331  0.89268057  0.83705008    -0.13400
C305        C  0.37635384  0.61923083  0.47303421    -0.11800
C306        C  0.39558358  0.59998644  0.47132336    -0.13400
C307        C  0.38031370  0.75625004  0.46480042    -0.11800
C308        C  0.39847895  0.79411329  0.45778866    -0.13400
C309        C  0.20157972  0.59719629  0.45755289    -0.11800
C310        C  0.23941493  0.61533334  0.46459804    -0.13400
C311        C  0.39558601  0.60009279  0.97134462    -0.11800
C312        C  0.37635628  0.61933671  0.97305376    -0.13400
C313        C  0.38031374  0.75635903  0.96484245    -0.11800
C314        C  0.39847903  0.79422252  0.95783158    -0.13400
C315        C  0.23941629  0.61544163  0.96462840    -0.11800
C316        C  0.20158138  0.59730516  0.95758243    -0.13400
C317        C  0.85357976  0.14212733  0.97306341     0.04600
C318        C  0.80771355  0.11816328  0.97180577    -0.11600
C319        C  0.78588721  0.13998774  0.96932030     0.02100
C320        C  0.80995617  0.18578932  0.96828335    -0.10100
C321        C  0.85574387  0.20985681  0.96944070     0.04600
C322        C  0.87755005  0.18801111  0.97193020    -0.09500
H323        H  0.78926703  0.08260272  0.97176081     0.10200
H324        H  0.79322347  0.20254065  0.96539624     0.07700
H325        H  0.91310248  0.20645812  0.97197810     0.07600
C326        C  0.85357769  0.14202133  0.47304061     0.04600
C327        C  0.87754865  0.18790429  0.47190061    -0.11600
C328        C  0.85574336  0.20974868  0.46940312     0.02100
C329        C  0.80995586  0.18568070  0.46824439    -0.10100
C330        C  0.78588609  0.13988018  0.46928912     0.04600
C331        C  0.80771148  0.11805708  0.47178272    -0.09500
H332        H  0.91310101  0.20635144  0.47194905     0.10200
H333        H  0.79322376  0.20243075  0.46535128     0.07700
H334        H  0.78926433  0.08249713  0.47174320     0.08000
C335        C  0.64534897  0.35064563  0.83533426     0.04600
C336        C  0.62137790  0.30476250  0.83647314    -0.11600
C337        C  0.64318267  0.28291798  0.83897206     0.02100
C338        C  0.68896982  0.30698595  0.84013327    -0.10100
C339        C  0.71303976  0.35278662  0.83908966     0.04600
C340        C  0.69121491  0.37460993  0.83659464    -0.09500
H341        H  0.58582576  0.28631526  0.83642282     0.10200
H342        H  0.70570136  0.29023572  0.84302741     0.07700
H343        H  0.70966209  0.41016985  0.83663496     0.07600
C344        C  0.64534821  0.35054020  0.33531180     0.04600
C345        C  0.69121468  0.37450434  0.33656761    -0.11600
C346        C  0.71304141  0.35268030  0.33905312     0.02100
C347        C  0.68897265  0.30687896  0.34009194    -0.10100
C348        C  0.64318466  0.28281138  0.33893651     0.04600
C349        C  0.62137807  0.30465665  0.33644689    -0.09500
H350        H  0.70966110  0.41006475  0.33661128     0.10200
H351        H  0.70570568  0.29012806  0.34297914     0.07700
H352        H  0.58582546  0.28620955  0.33640047     0.07600
N353        N  0.97021416  0.48770887  0.00267058    -0.04700
N354        N  0.96040110  0.47098196  0.03711747    -0.56800
N355        N  0.96965714  0.06391772  0.95997027    -0.04300
N356        N  0.96301467  0.09709188  0.96456875    -0.58900
N357        N  0.93181743  0.02607967  0.96001440    -0.03900
N358        N  0.89861644  0.03269884  0.96464342    -0.56700
N359        N  0.50805765  0.02555596  0.00262490    -0.03600
N360        N  0.52477666  0.03536369  0.03703869    -0.59300
C361        C  0.49486535  0.50089396  0.05798524     0.97500
C362        C  0.91864756  0.07704938  0.96754254     0.97300
N363        N  0.57008726  0.09227211  0.86553658    -0.04800
N364        N  0.58665558  0.12301467  0.84074745    -0.57300
N365        N  0.59532044  0.06700237  0.94269337    -0.03000
N366        N  0.62602674  0.08352638  0.96745402    -0.58600
N367        N  0.60851041  0.05363526  0.90745636    -0.04900
N368        N  0.64831916  0.06066174  0.90754704    -0.57600
N369        N  0.55666490  0.10540426  0.90077546    -0.02600
N370        N  0.56369435  0.14520404  0.90065691    -0.58700
Mn371      Mn  0.53291584  0.06645433  0.95230637     1.18400
C372        C  0.58187252  0.15545942  0.86299667     0.99600
C373        C  0.65851401  0.07877982  0.94518946     1.00300
N374        N  0.89041579  0.43913875  0.90095466    -0.04900
N375        N  0.85060775  0.43211375  0.90086364    -0.61200
N376        N  0.94226134  0.38736922  0.90763816    -0.03700
N377        N  0.93523233  0.34756990  0.90775838    -0.61900
N378        N  0.92883744  0.40050164  0.94287599    -0.04400
N379        N  0.91226902  0.36976017  0.96766624    -0.61500
N380        N  0.90360522  0.42577000  0.86571842    -0.03300
N381        N  0.87289918  0.40924643  0.84095757    -0.62100
Mn382      Mn  0.92933315  0.46286338  0.95242368     1.10700
C383        C  0.84041271  0.41399490  0.86322151     1.00800
C384        C  0.91705321  0.33731543  0.94541870     1.00900
N385        N  0.56710932  0.46669369  0.84839449    -0.04400
N386        N  0.60031103  0.46007474  0.84375929    -0.59800
N387        N  0.99086587  0.46721341  0.80578666    -0.03700
N388        N  0.97414827  0.45739664  0.77137086    -0.56500
N389        N  0.52870885  0.00506131  0.80573776    -0.05000
N390        N  0.53852266  0.02177906  0.77128527    -0.59300
N391        N  0.52926978  0.42885534  0.84844038    -0.04000
N392        N  0.53591323  0.39568135  0.84383667    -0.56500
Mn393      Mn  0.56959209  0.02990999  0.85598635     1.20200
Mn394      Mn  0.96600997  0.42631793  0.85610627     1.10100
Cl395      Cl  0.99946302  0.49638650  0.90420561    -0.84500
C396        C  0.58028064  0.41572406  0.84085812     0.97800
C397        C  0.00405863  0.49186117  0.75041852     0.97600
N398        N  0.97021394  0.48760450  0.50263921    -0.04700
N399        N  0.96039602  0.47088848  0.53709328    -0.56800
N400        N  0.96965629  0.06381131  0.45993548    -0.04300
N401        N  0.96301313  0.09698543  0.46453878    -0.58900
N402        N  0.93181670  0.02597301  0.45998016    -0.03900
N403        N  0.89861520  0.03259210  0.46461408    -0.56700
N404        N  0.50805691  0.02545240  0.50259158    -0.03600
N405        N  0.52477052  0.03527073  0.53700980    -0.59300
C406        C  0.49485766  0.50080722  0.55796231     0.97500
C407        C  0.91864582  0.07694278  0.46751570     0.97300
N408        N  0.57009204  0.09216727  0.36550356    -0.04800
N409        N  0.58666123  0.12290921  0.34071369    -0.57300
N410        N  0.59532021  0.06689561  0.44266157    -0.03000
N411        N  0.62602554  0.08341873  0.46742310    -0.58600
N412        N  0.60851058  0.05352758  0.40742541    -0.04900
N413        N  0.64831847  0.06055254  0.40751722    -0.57600
N414        N  0.55666720  0.10529905  0.40074116    -0.02600
N415        N  0.56369628  0.14509847  0.40062123    -0.58700
Mn416      Mn  0.53291580  0.06634853  0.45227205     1.18400
C417        C  0.58187652  0.15535361  0.36296127     0.99600
C418        C  0.65851250  0.07867064  0.44515971     1.00300
N419        N  0.89041705  0.43903233  0.40091749    -0.04900
N420        N  0.85060845  0.43200584  0.40082602    -0.61200
N421        N  0.94226176  0.38726290  0.40759915    -0.03700
N422        N  0.93523230  0.34746305  0.40771739    -0.61900
N423        N  0.92883868  0.40039451  0.44283797    -0.04400
N424        N  0.91226979  0.36965149  0.46762668    -0.61500
N425        N  0.90360794  0.42566601  0.36568058    -0.03300
N426        N  0.87290243  0.40914252  0.34091919    -0.62100
Mn427      Mn  0.92933356  0.46275658  0.45238856     1.10700
C428        C  0.84041463  0.41388859  0.36318324     1.00800
C429        C  0.91705328  0.33720703  0.44537735     1.00900
N430        N  0.56711083  0.46658854  0.34836317    -0.04400
N431        N  0.60031167  0.45996910  0.34373425    -0.59800
N432        N  0.99087204  0.46711491  0.30575197    -0.03700
N433        N  0.97415223  0.45731031  0.27133914    -0.56500
N434        N  0.52871548  0.00496200  0.30570758    -0.05000
N435        N  0.53852791  0.02169192  0.27126246    -0.59300
N436        N  0.52927107  0.42875056  0.34840606    -0.04000
N437        N  0.53591333  0.39557617  0.34380681    -0.56500
Mn438      Mn  0.56959529  0.02980511  0.35595514     1.20200
Mn439      Mn  0.96601241  0.42621425  0.35606894     1.10100
Cl440      Cl  0.99946398  0.49628091  0.40417139    -0.84500
C441        C  0.58028038  0.41561847  0.34083392     0.97800
C442        C  0.00406325  0.49178178  0.25039443     0.97600
C443        C  0.49729398  0.49838225  0.59898608    -0.17000
C444        C  0.99873436  0.49700641  0.63375434     0.07000
C445        C  0.00017497  0.49566499  0.67462926     0.08900
C446        C  0.00161765  0.49428819  0.70939669    -0.17900
C447        C  0.99731065  0.49844626  0.09899902    -0.17000
C448        C  0.99874770  0.49703533  0.13375860     0.07000
C449        C  0.00017920  0.49564583  0.17462306     0.08900
C450        C  0.00161686  0.49423316  0.20938204    -0.17900
C451        C  0.60045031  0.19844646  0.35054840    -0.11800
C452        C  0.61861517  0.23630959  0.34353665    -0.13400
C453        C  0.79734760  0.39536332  0.35078952    -0.11800
C454        C  0.75951261  0.37722674  0.34374379    -0.13400
C455        C  0.62257146  0.37333076  0.33532207    -0.11800
C456        C  0.60334167  0.39257477  0.33703167    -0.13400
C457        C  0.61861207  0.23641641  0.84357382    -0.11800
C458        C  0.60044669  0.19855299  0.85058511    -0.13400
C459        C  0.79734537  0.39546988  0.85082877    -0.11800
C460        C  0.75951044  0.37733327  0.84378287    -0.13400
C461        C  0.62257306  0.37343622  0.83533956    -0.11800
C462        C  0.60334324  0.39268055  0.83705008    -0.13400
C463        C  0.87635379  0.11923080  0.47303421    -0.11800
C464        C  0.89558355  0.09998644  0.47132336    -0.13400
C465        C  0.88031362  0.25625003  0.46480042    -0.11800
C466        C  0.89847889  0.29411328  0.45778864    -0.13400
C467        C  0.70157975  0.09719627  0.45755292    -0.11800
C468        C  0.73941497  0.11533330  0.46459802    -0.13400
C469        C  0.89558603  0.10009276  0.97134454    -0.11800
C470        C  0.87635626  0.11933666  0.97305356    -0.13400
C471        C  0.88031369  0.25635903  0.96484246    -0.11800
C472        C  0.89847893  0.29422250  0.95783158    -0.13400
C473        C  0.73941629  0.11544167  0.96462840    -0.11800
C474        C  0.70158139  0.09730519  0.95758242    -0.13400
C475        C  0.85357972  0.64212732  0.97306347     0.04600
C476        C  0.80771351  0.61816317  0.97180577    -0.11600
C477        C  0.78588719  0.63998767  0.96932030     0.02100
C478        C  0.80995611  0.68578924  0.96828335    -0.10100
C479        C  0.85574380  0.70985678  0.96944070     0.04600
C480        C  0.87754998  0.68801109  0.97193021    -0.09500
H481        H  0.78926711  0.58260275  0.97176082     0.10200
H482        H  0.79322336  0.70254055  0.96539624     0.07700
H483        H  0.91310239  0.70645811  0.97197813     0.07600
C484        C  0.85357774  0.64202133  0.47304061     0.04600
C485        C  0.87754868  0.68790430  0.47190062    -0.11600
C486        C  0.85574335  0.70974868  0.46940313     0.02100
C487        C  0.80995586  0.68568066  0.46824439    -0.10100
C488        C  0.78588609  0.63988015  0.46928911     0.04600
C489        C  0.80771152  0.61805706  0.47178272    -0.09500
H490        H  0.91310103  0.70635148  0.47194905     0.10200
H491        H  0.79322374  0.70243073  0.46535127     0.07700
H492        H  0.78926440  0.58249711  0.47174320     0.08000
C493        C  0.64534894  0.85064563  0.83533426     0.04600
C494        C  0.62137784  0.80476250  0.83647314    -0.11600
C495        C  0.64318261  0.78291798  0.83897206     0.02100
C496        C  0.68896975  0.80698595  0.84013327    -0.10100
C497        C  0.71303970  0.85278661  0.83908966     0.04600
C498        C  0.69121487  0.87460993  0.83659464    -0.09500
H499        H  0.58582569  0.78631528  0.83642282     0.10200
H500        H  0.70570129  0.79023572  0.84302741     0.07700
H501        H  0.70966205  0.91016984  0.83663496     0.07600
C502        C  0.64534820  0.85054021  0.33531179     0.04600
C503        C  0.69121467  0.87450436  0.33656761    -0.11600
C504        C  0.71304141  0.85268031  0.33905313     0.02100
C505        C  0.68897259  0.80687899  0.34009193    -0.10100
C506        C  0.64318462  0.78281139  0.33893651     0.04600
C507        C  0.62137804  0.80465667  0.33644689    -0.09500
H508        H  0.70966110  0.91006477  0.33661129     0.10200
H509        H  0.70570564  0.79012800  0.34297914     0.07700
H510        H  0.58582545  0.78620958  0.33640047     0.07600
N511        N  0.97021427  0.98770886  0.00267054    -0.04700
N512        N  0.96040113  0.97098198  0.03711746    -0.56800
N513        N  0.96965706  0.56391771  0.95997026    -0.04300
N514        N  0.96301460  0.59709188  0.96456875    -0.58900
N515        N  0.93181734  0.52607966  0.96001439    -0.03900
N516        N  0.89861635  0.53269885  0.96464342    -0.56700
N517        N  0.50805767  0.52555598  0.00262491    -0.03600
N518        N  0.52477666  0.53536372  0.03703871    -0.59300
C519        C  0.49486531  0.00089400  0.05798527     0.97500
C520        C  0.91864749  0.57704938  0.96754253     0.97300
N521        N  0.57008718  0.59227207  0.86553655    -0.04800
N522        N  0.58665549  0.62301462  0.84074742    -0.57300
N523        N  0.59532045  0.56700238  0.94269338    -0.03000
N524        N  0.62602675  0.58352638  0.96745402    -0.58600
N525        N  0.60851040  0.55363527  0.90745635    -0.04900
N526        N  0.64831913  0.56066174  0.90754704    -0.57600
N527        N  0.55666493  0.60540428  0.90077547    -0.02600
N528        N  0.56369447  0.64520408  0.90065694    -0.58700
Mn529      Mn  0.53291588  0.56645434  0.95230638     1.18400
C530        C  0.58187255  0.65545943  0.86299668     0.99600
C531        C  0.65851402  0.57877981  0.94518946     1.00300
N532        N  0.89041577  0.93913875  0.90095467    -0.04900
N533        N  0.85060772  0.93211376  0.90086365    -0.61200
N534        N  0.94226138  0.88736922  0.90763816    -0.03700
N535        N  0.93523244  0.84756994  0.90775841    -0.61900
N536        N  0.92883740  0.90050160  0.94287596    -0.04400
N537        N  0.91226894  0.86976012  0.96766622    -0.61500
N538        N  0.90360519  0.92576999  0.86571842    -0.03300
N539        N  0.87289914  0.90924644  0.84095758    -0.62100
Mn540      Mn  0.92933322  0.96286338  0.95242366     1.10700
C541        C  0.84041266  0.91399491  0.86322152     1.00800
C542        C  0.91705323  0.83731543  0.94541870     1.00900
N543        N  0.56710935  0.96669369  0.84839450    -0.04400
N544        N  0.60031107  0.96007471  0.84375929    -0.59800
N545        N  0.99086589  0.96721343  0.80578667    -0.03700
N546        N  0.97414828  0.95739667  0.77137088    -0.56500
N547        N  0.52870879  0.50506129  0.80573778    -0.05000
N548        N  0.53852272  0.52177897  0.77128524    -0.59300
N549        N  0.52926982  0.92885536  0.84844040    -0.04000
N550        N  0.53591324  0.89568135  0.84383666    -0.56500
Mn551      Mn  0.56959203  0.52990997  0.85598635     1.20200
Mn552      Mn  0.96601002  0.92631794  0.85610627     1.10100
Cl553      Cl  0.99946302  0.99638652  0.90420559    -0.84500
C554        C  0.58028065  0.91572404  0.84085811     0.97800
C555        C  0.00405869  0.99186114  0.75041849     0.97600
N556        N  0.97021385  0.98760452  0.50263923    -0.04700
N557        N  0.96039597  0.97088847  0.53709329    -0.56800
N558        N  0.96965632  0.56381128  0.45993549    -0.04300
N559        N  0.96301319  0.59698541  0.46453879    -0.58900
N560        N  0.93181670  0.52597298  0.45998016    -0.03900
N561        N  0.89861522  0.53259212  0.46461407    -0.56700
N562        N  0.50805681  0.52545241  0.50259159    -0.03600
N563        N  0.52477043  0.53527073  0.53700979    -0.59300
C564        C  0.49485773  0.00080723  0.55796231     0.97500
C565        C  0.91864589  0.57694281  0.46751570     0.97300
N566        N  0.57009197  0.59216727  0.36550356    -0.04800
N567        N  0.58666115  0.62290921  0.34071369    -0.57300
N568        N  0.59532013  0.56689561  0.44266157    -0.03000
N569        N  0.62602547  0.58341873  0.46742310    -0.58600
N570        N  0.60851050  0.55352758  0.40742541    -0.04900
N571        N  0.64831839  0.56055254  0.40751722    -0.57600
N572        N  0.55666713  0.60529905  0.40074116    -0.02600
N573        N  0.56369621  0.64509847  0.40062123    -0.58700
Mn574      Mn  0.53291573  0.56634854  0.45227205     1.18400
C575        C  0.58187645  0.65535361  0.36296127     0.99600
C576        C  0.65851243  0.57867065  0.44515972     1.00300
N577        N  0.89041702  0.93903234  0.40091749    -0.04900
N578        N  0.85060842  0.93200584  0.40082601    -0.61200
N579        N  0.94226180  0.88726292  0.40759916    -0.03700
N580        N  0.93523231  0.84746307  0.40771740    -0.61900
N581        N  0.92883866  0.90039451  0.44283798    -0.04400
N582        N  0.91226972  0.86965146  0.46762666    -0.61500
N583        N  0.90360793  0.92566602  0.36568060    -0.03300
N584        N  0.87290243  0.90914252  0.34091919    -0.62100
Mn585      Mn  0.92933352  0.96275658  0.45238857     1.10700
C586        C  0.84041462  0.91388856  0.36318323     1.00800
C587        C  0.91705323  0.83720701  0.44537734     1.00900
N588        N  0.56711081  0.96658854  0.34836317    -0.04400
N589        N  0.60031164  0.95996910  0.34373425    -0.59800
N590        N  0.99087196  0.96711492  0.30575200    -0.03700
N591        N  0.97415213  0.95731029  0.27133916    -0.56500
N592        N  0.52871545  0.50496201  0.30570758    -0.05000
N593        N  0.53852784  0.52169196  0.27126248    -0.59300
N594        N  0.52927104  0.92875055  0.34840605    -0.04000
N595        N  0.53591330  0.89557617  0.34380681    -0.56500
Mn596      Mn  0.56959523  0.52980511  0.35595515     1.20200
Mn597      Mn  0.96601237  0.92621425  0.35606895     1.10100
Cl598      Cl  0.99946393  0.99628092  0.40417138    -0.84500
C599        C  0.58028036  0.91561847  0.34083393     0.97800
C600        C  0.00406311  0.99178180  0.25039448     0.97600
C601        C  0.49729407  0.99838223  0.59898605    -0.17000
C602        C  0.99873428  0.99700641  0.63375435     0.07000
C603        C  0.00017489  0.99566500  0.67462928     0.08900
C604        C  0.00161764  0.99428821  0.70939669    -0.17900
C605        C  0.99731060  0.99844627  0.09899905    -0.17000
C606        C  0.99874763  0.99703533  0.13375862     0.07000
C607        C  0.00017913  0.99564582  0.17462309     0.08900
C608        C  0.00161677  0.99423316  0.20938207    -0.17900
C609        C  0.60045024  0.69844645  0.35054840    -0.11800
C610        C  0.61861510  0.73630959  0.34353665    -0.13400
C611        C  0.79734760  0.89536327  0.35078949    -0.11800
C612        C  0.75951261  0.87722675  0.34374380    -0.13400
C613        C  0.62257144  0.87333076  0.33532207    -0.11800
C614        C  0.60334166  0.89257477  0.33703167    -0.13400
C615        C  0.61861205  0.73641641  0.84357382    -0.11800
C616        C  0.60044681  0.69855302  0.85058512    -0.13400
C617        C  0.79734530  0.89546988  0.85082878    -0.11800
C618        C  0.75951037  0.87733327  0.84378287    -0.13400
C619        C  0.62257308  0.87343625  0.83533956    -0.11800
C620        C  0.60334323  0.89268052  0.83705008    -0.13400
C621        C  0.87635390  0.61923086  0.47303421    -0.11800
C622        C  0.89558368  0.59998651  0.47132336    -0.13400
C623        C  0.88031363  0.75625004  0.46480042    -0.11800
C624        C  0.89847898  0.79411331  0.45778866    -0.13400
C625        C  0.70157971  0.59719629  0.45755293    -0.11800
C626        C  0.73941495  0.61533330  0.46459803    -0.13400
C627        C  0.89558597  0.60009277  0.97134461    -0.11800
C628        C  0.87635622  0.61933669  0.97305375    -0.13400
C629        C  0.88031366  0.75635903  0.96484246    -0.11800
C630        C  0.89847904  0.79422252  0.95783159    -0.13400
C631        C  0.73941629  0.61544160  0.96462839    -0.11800
C632        C  0.70158140  0.59730518  0.95758241    -0.13400
loop_ 
_geom_bond_atom_site_label_1 
_geom_bond_atom_site_label_2 
_geom_bond_distance 
_geom_bond_site_symmetry_2 
_ccdc_geom_bond_type 
C1            C2   1.404       .  A
C1            C6   1.404       .  A
C1          C154   1.443       .  S
C2            C3   1.402       .  A
C2            H7   1.084       .  S
C3            C4   1.401       .  A
C3          C157   1.442       .  S
C4            C5   1.401       .  A
C4            H8   1.085       .  S
C5            C6   1.402       .  A
C5          C155   1.442       .  S
C6            H9   1.084       .  S
C10          C11   1.404       .  A
C10          C15   1.404       .  A
C10         C147   1.443       .  S
C11          C12   1.402       .  A
C11          H16   1.084       .  S
C12          C13   1.401       .  A
C12         C149   1.442       .  S
C13          C14   1.401       .  A
C13          H17   1.085       .  S
C14          C15   1.402       .  A
C14         C152   1.442       .  S
C15          H18   1.084       .  S
C19          C20   1.404       .  A
C19          C24   1.404       .  A
C19         C145   1.443       .  S
C20          C21   1.402       .  A
C20          H25   1.084       .  S
C21          C22   1.401       .  A
C21         C141   1.442       .  S
C22          C23   1.401       .  A
C22          H26   1.085       .  S
C23          C24   1.402       .  A
C23         C144   1.442       .  S
C24          H27   1.084       .  S
C28          C29   1.404       .  A
C28          C33   1.404       .  A
C28         C139   1.443       .  S
C29          C30   1.402       .  A
C29          H34   1.084       .  S
C30          C31   1.401       .  A
C30         C138   1.442       .  S
C31          C32   1.401       .  A
C31          H35   1.085       .  S
C32          C33   1.402       .  A
C32         C136   1.442       .  S
C33          H36   1.084       .  S
N37          N38   1.321       .  A
N37         N517   1.317       .  A
N37         Mn66   2.206   1_554  S
N38         C361   1.351       .  A
N39          N41   1.316       .  A
N39          N40   1.321       .  A
N39        Mn371   2.206       .  S
N40          C46   1.351       .  A
N41          N42   1.321       .  A
N41        Mn224   2.206   1_545  S
N42          C46   1.351       .  A
N43          N44   1.321       .  A
N43         N511   1.317   1_445  A
N43         Mn55   2.206   1_554  S
N44         C203   1.351   1_455  A
C45         C447   1.439       .  S
C45         N354   1.351       .  A
C45         N202   1.351   1_655  A
C46         C153   1.439       .  S
N47          N53   1.317       .  A
N47          N48   1.322       .  A
N47         Mn77   2.209       .  S
N48          C56   1.352       .  A
N49          N50   1.322       .  A
N49          N51   1.317       .  A
N49         Mn55   2.208       .  S
N50          C57   1.352       .  A
N51          N52   1.320       .  A
N51         Mn77   2.203       .  S
N52          C57   1.350       .  A
N53          N54   1.320       .  A
N53         Mn55   2.203       .  S
N54          C56   1.350       .  A
Mn55        N355   2.206   1_455  S
Mn55       Cl553   2.550   1_445  S
C56         C142   1.438       .  S
C57         C158   1.438       .  S
N58          N59   1.320       .  A
N58          N64   1.317       .  A
N58         Mn66   2.203       .  S
N59          C67   1.350       .  A
N60          N62   1.317       .  A
N60          N61   1.320       .  A
N60         Mn78   2.203       .  S
N61          C68   1.350       .  A
N62          N63   1.322       .  A
N62         Mn66   2.209       .  S
N63          C68   1.352       .  A
N64          N65   1.322       .  A
N64         Mn78   2.208       .  S
N65          C67   1.352       .  A
Mn66        N199   2.206       .  S
Mn66        Cl79   2.550       .  S
C67         C143   1.438       .  S
C68         C156   1.438       .  S
N69          N70   1.321       .  A
N69          N75   1.316       .  A
N69        Mn235   2.206       .  S
N70          C80   1.351       .  A
N71          N72   1.321       .  A
N71         N547   1.317       .  A
N71         Mn78   2.206       .  S
N72          C81   1.351       .  A
N73          N74   1.321       .  A
N73         N545   1.317   1_445  A
N73         Mn77   2.206       .  S
N74         C555   1.351   1_545  A
N75          N76   1.321       .  A
N75        Mn394   2.206   1_455  S
N76          C80   1.351       .  A
Mn77        N227   2.206   1_545  S
Mn77       Cl553   2.550   1_445  S
Mn78        N391   2.206       .  S
Mn78        Cl79   2.550       .  S
Cl79       Mn529   2.550       .  S
Cl79       Mn551   2.550       .  S
C80         C146   1.439       .  S
C81         C130   1.439       .  S
C81         N548   1.351       .  A
N82          N83   1.321       .  A
N82         N562   1.317       .  A
N82        Mn111   2.206       .  S
N83         C406   1.351       .  A
N84          N86   1.316       .  A
N84          N85   1.321       .  A
N84        Mn416   2.206       .  S
N85          C91   1.351       .  A
N86          N87   1.321       .  A
N86        Mn269   2.206   1_545  S
N87          C91   1.351       .  A
N88          N89   1.321       .  A
N88         N556   1.317   1_445  A
N88        Mn100   2.206       .  S
N89         C248   1.351   1_455  A
C90         C127   1.439       .  S
C90         N399   1.351       .  A
C90         N247   1.351   1_655  A
C91         C148   1.439       .  S
N92          N98   1.317       .  A
N92          N93   1.322       .  A
N92        Mn122   2.209       .  S
N93         C101   1.352       .  A
N94          N95   1.322       .  A
N94          N96   1.317       .  A
N94        Mn100   2.208       .  S
N95         C102   1.352       .  A
N96          N97   1.320       .  A
N96        Mn122   2.203       .  S
N97         C102   1.350       .  A
N98          N99   1.320       .  A
N98        Mn100   2.203       .  S
N99         C101   1.350       .  A
Mn100       N400   2.206   1_455  S
Mn100      Cl598   2.550   1_445  S
C101        C135   1.438       .  S
C102        C151   1.438       .  S
N103        N104   1.320       .  A
N103        N109   1.317       .  A
N103       Mn111   2.203       .  S
N104        C112   1.350       .  A
N105        N107   1.317       .  A
N105        N106   1.320       .  A
N105       Mn123   2.203       .  S
N106        C113   1.350       .  A
N107        N108   1.322       .  A
N107       Mn111   2.209       .  S
N108        C113   1.352       .  A
N109        N110   1.322       .  A
N109       Mn123   2.208       .  S
N110        C112   1.352       .  A
Mn111       N244   2.206       .  S
Mn111      Cl124   2.550       .  S
C112        C137   1.438       .  S
C113        C150   1.438       .  S
N114        N115   1.321       .  A
N114        N120   1.316       .  A
N114       Mn280   2.206       .  S
N115        C125   1.351       .  A
N116        N117   1.321       .  A
N116        N592   1.317       .  A
N116       Mn123   2.206       .  S
N117        C126   1.351       .  A
N118        N119   1.321       .  A
N118        N590   1.317   1_445  A
N118       Mn122   2.206       .  S
N119        C600   1.351   1_545  A
N120        N121   1.321       .  A
N120       Mn439   2.206   1_455  S
N121        C125   1.351       .  A
Mn122       N272   2.206   1_545  S
Mn122      Cl598   2.550   1_445  S
Mn123       N436   2.206       .  S
Mn123      Cl124   2.550       .  S
Cl124      Mn574   2.550       .  S
Cl124      Mn596   2.550       .  S
C125        C140   1.439       .  S
C126        C134   1.439       .  S
C126        N593   1.351       .  A
C127        C444   1.207       .  T
C128        C443   1.207       .  T
C128        C129   1.415       .  S
C129        C130   1.207       .  T
C131        C361   1.439       .  S
C131        C132   1.207       .  T
C132        C133   1.415       .  S
C133        C134   1.207       .  T
C135        C136   1.207       .  T
C137        C138   1.207       .  T
C139        C140   1.208       .  T
C141        C142   1.207       .  T
C143        C144   1.207       .  T
C145        C146   1.208       .  T
C147        C148   1.208       .  T
C149        C150   1.207       .  T
C151        C152   1.207       .  T
C153        C154   1.208       .  T
C155        C156   1.207       .  T
C157        C158   1.207       .  T
C159        C160   1.404       .  A
C159        C164   1.404       .  A
C159        C312   1.443       .  S
C160        C161   1.402       .  A
C160        H165   1.084       .  S
C161        C162   1.401       .  A
C161        C315   1.442       .  S
C162        C163   1.401       .  A
C162        H166   1.085       .  S
C163        C164   1.402       .  A
C163        C313   1.442       .  S
C164        H167   1.084       .  S
C168        C169   1.404       .  A
C168        C173   1.404       .  A
C168        C305   1.443       .  S
C169        C170   1.402       .  A
C169        H174   1.084       .  S
C170        C171   1.401       .  A
C170        C307   1.442       .  S
C171        C172   1.401       .  A
C171        H175   1.085       .  S
C172        C173   1.402       .  A
C172        C310   1.442       .  S
C173        H176   1.084       .  S
C177        C178   1.404       .  A
C177        C182   1.404       .  A
C177        C303   1.443       .  S
C178        C179   1.402       .  A
C178        H183   1.084       .  S
C179        C180   1.401       .  A
C179        C299   1.442       .  S
C180        C181   1.401       .  A
C180        H184   1.085       .  S
C181        C182   1.402       .  A
C181        C302   1.442       .  S
C182        H185   1.084       .  S
C186        C187   1.404       .  A
C186        C191   1.404       .  A
C186        C297   1.443       .  S
C187        C188   1.402       .  A
C187        H192   1.084       .  S
C188        C189   1.401       .  A
C188        C296   1.442       .  S
C189        C190   1.401       .  A
C189        H193   1.085       .  S
C190        C191   1.402       .  A
C190        C294   1.442       .  S
C191        H194   1.084       .  S
N195        N196   1.321       .  A
N195        N359   1.317   1_565  A
N195       Mn224   2.206   1_554  S
N196        C519   1.351   1_565  A
N197        N199   1.316       .  A
N197        N198   1.321       .  A
N197       Mn529   2.206       .  S
N198        C204   1.351       .  A
N199        N200   1.321       .  A
N200        C204   1.351       .  A
N201        N353   1.317   1_455  A
N201        N202   1.321       .  A
N201       Mn213   2.206   1_554  S
C203        C605   1.439   1_545  S
C203        N512   1.351   1_545  A
C204        C311   1.439       .  S
N205        N211   1.317       .  A
N205        N206   1.322       .  A
N205       Mn235   2.209       .  S
N206        C214   1.352       .  A
N207        N208   1.322       .  A
N207        N209   1.317       .  A
N207       Mn213   2.208       .  S
N208        C215   1.352       .  A
N209        N210   1.320       .  A
N209       Mn235   2.203       .  S
N210        C215   1.350       .  A
N211        N212   1.320       .  A
N211       Mn213   2.203       .  S
N212        C214   1.350       .  A
Mn213       N513   2.206   1_455  S
Mn213      Cl395   2.550   1_455  S
C214        C300   1.438       .  S
C215        C316   1.438       .  S
N216        N217   1.320       .  A
N216        N222   1.317       .  A
N216       Mn224   2.203       .  S
N217        C225   1.350       .  A
N218        N220   1.317       .  A
N218        N219   1.320       .  A
N218       Mn236   2.203       .  S
N219        C226   1.350       .  A
N220        N221   1.322       .  A
N220       Mn224   2.209       .  S
N221        C226   1.352       .  A
N222        N223   1.322       .  A
N222       Mn236   2.208       .  S
N223        C225   1.352       .  A
Mn224      Cl237   2.550       .  S
C225        C301   1.438       .  S
C226        C314   1.438       .  S
N227        N228   1.321       .  A
N227        N233   1.316       .  A
N228        C238   1.351       .  A
N229        N230   1.321       .  A
N229        N389   1.317   1_565  A
N229       Mn236   2.206       .  S
N230        C239   1.351       .  A
N231        N387   1.317   1_455  A
N231        N232   1.321       .  A
N231       Mn235   2.206       .  S
N232        C397   1.351       .  A
N233        N234   1.321       .  A
N233       Mn552   2.206   1_455  S
N234        C238   1.351       .  A
Mn235      Cl395   2.550   1_455  S
Mn236       N549   2.206       .  S
Mn236      Cl237   2.550       .  S
Cl237      Mn371   2.550   1_565  S
Cl237      Mn393   2.550   1_565  S
C238        C304   1.439       .  S
C239        C288   1.439       .  S
C239        N390   1.351   1_565  A
N240        N241   1.321       .  A
N240        N404   1.317   1_565  A
N240       Mn269   2.206       .  S
N241        C564   1.351   1_565  A
N242        N244   1.316       .  A
N242        N243   1.321       .  A
N242       Mn574   2.206       .  S
N243        C249   1.351       .  A
N244        N245   1.321       .  A
N245        C249   1.351       .  A
N246        N398   1.317   1_455  A
N246        N247   1.321       .  A
N246       Mn258   2.206       .  S
C248        C285   1.439   1_545  S
C248        N557   1.351   1_545  A
C249        C306   1.439       .  S
N250        N256   1.317       .  A
N250        N251   1.322       .  A
N250       Mn280   2.209       .  S
N251        C259   1.352       .  A
N252        N253   1.322       .  A
N252        N254   1.317       .  A
N252       Mn258   2.208       .  S
N253        C260   1.352       .  A
N254        N255   1.320       .  A
N254       Mn280   2.203       .  S
N255        C260   1.350       .  A
N256        N257   1.320       .  A
N256       Mn258   2.203       .  S
N257        C259   1.350       .  A
Mn258       N558   2.206   1_455  S
Mn258      Cl440   2.550   1_455  S
C259        C293   1.438       .  S
C260        C309   1.438       .  S
N261        N262   1.320       .  A
N261        N267   1.317       .  A
N261       Mn269   2.203       .  S
N262        C270   1.350       .  A
N263        N265   1.317       .  A
N263        N264   1.320       .  A
N263       Mn281   2.203       .  S
N264        C271   1.350       .  A
N265        N266   1.322       .  A
N265       Mn269   2.209       .  S
N266        C271   1.352       .  A
N267        N268   1.322       .  A
N267       Mn281   2.208       .  S
N268        C270   1.352       .  A
Mn269      Cl282   2.550       .  S
C270        C295   1.438       .  S
C271        C308   1.438       .  S
N272        N273   1.321       .  A
N272        N278   1.316       .  A
N273        C283   1.351       .  A
N274        N275   1.321       .  A
N274        N434   1.317   1_565  A
N274       Mn281   2.206       .  S
N275        C284   1.351       .  A
N276        N432   1.317   1_455  A
N276        N277   1.321       .  A
N276       Mn280   2.206       .  S
N277        C442   1.351       .  A
N278        N279   1.321       .  A
N278       Mn597   2.206   1_455  S
N279        C283   1.351       .  A
Mn280      Cl440   2.550   1_455  S
Mn281       N594   2.206       .  S
Mn281      Cl282   2.550       .  S
Cl282      Mn416   2.550   1_565  S
Cl282      Mn438   2.550   1_565  S
C283        C298   1.439       .  S
C284        C292   1.439       .  S
C284        N435   1.351   1_565  A
C285        C602   1.207       .  T
C286        C601   1.207       .  T
C286        C287   1.415       .  S
C287        C288   1.207       .  T
C289        C519   1.439   1_565  S
C289        C290   1.207       .  T
C290        C291   1.415       .  S
C291        C292   1.207       .  T
C293        C294   1.207       .  T
C295        C296   1.207       .  T
C297        C298   1.208       .  T
C299        C300   1.207       .  T
C301        C302   1.207       .  T
C303        C304   1.208       .  T
C305        C306   1.208       .  T
C307        C308   1.207       .  T
C309        C310   1.207       .  T
C311        C312   1.208       .  T
C313        C314   1.207       .  T
C315        C316   1.207       .  T
C317        C318   1.404       .  A
C317        C322   1.404       .  A
C317        C470   1.443       .  S
C318        C319   1.402       .  A
C318        H323   1.084       .  S
C319        C320   1.401       .  A
C319        C473   1.442       .  S
C320        C321   1.401       .  A
C320        H324   1.085       .  S
C321        C322   1.402       .  A
C321        C471   1.442       .  S
C322        H325   1.084       .  S
C326        C327   1.404       .  A
C326        C331   1.404       .  A
C326        C463   1.443       .  S
C327        C328   1.402       .  A
C327        H332   1.084       .  S
C328        C329   1.401       .  A
C328        C465   1.442       .  S
C329        C330   1.401       .  A
C329        H333   1.085       .  S
C330        C331   1.402       .  A
C330        C468   1.442       .  S
C331        H334   1.084       .  S
C335        C336   1.404       .  A
C335        C340   1.404       .  A
C335        C461   1.443       .  S
C336        C337   1.402       .  A
C336        H341   1.084       .  S
C337        C338   1.401       .  A
C337        C457   1.442       .  S
C338        C339   1.401       .  A
C338        H342   1.085       .  S
C339        C340   1.402       .  A
C339        C460   1.442       .  S
C340        H343   1.084       .  S
C344        C345   1.404       .  A
C344        C349   1.404       .  A
C344        C455   1.443       .  S
C345        C346   1.402       .  A
C345        H350   1.084       .  S
C346        C347   1.401       .  A
C346        C454   1.442       .  S
C347        C348   1.401       .  A
C347        H351   1.085       .  S
C348        C349   1.402       .  A
C348        C452   1.442       .  S
C349        H352   1.084       .  S
N353        N354   1.321       .  A
N353       Mn382   2.206   1_554  S
N355        N357   1.316       .  A
N355        N356   1.321       .  A
N356        C362   1.351       .  A
N357        N358   1.321       .  A
N357       Mn540   2.206   1_545  S
N358        C362   1.351       .  A
N359        N360   1.321       .  A
N359       Mn371   2.206   1_554  S
N360        C519   1.351       .  A
C361        N518   1.351       .  A
C362        C469   1.439       .  S
N363        N369   1.317       .  A
N363        N364   1.322       .  A
N363       Mn393   2.209       .  S
N364        C372   1.352       .  A
N365        N366   1.322       .  A
N365        N367   1.317       .  A
N365       Mn371   2.208       .  S
N366        C373   1.352       .  A
N367        N368   1.320       .  A
N367       Mn393   2.203       .  S
N368        C373   1.350       .  A
N369        N370   1.320       .  A
N369       Mn371   2.203       .  S
N370        C372   1.350       .  A
C372        C458   1.438       .  S
C373        C474   1.438       .  S
N374        N375   1.320       .  A
N374        N380   1.317       .  A
N374       Mn382   2.203       .  S
N375        C383   1.350       .  A
N376        N378   1.317       .  A
N376        N377   1.320       .  A
N376       Mn394   2.203       .  S
N377        C384   1.350       .  A
N378        N379   1.322       .  A
N378       Mn382   2.209       .  S
N379        C384   1.352       .  A
N380        N381   1.322       .  A
N380       Mn394   2.208       .  S
N381        C383   1.352       .  A
Mn382       N515   2.206       .  S
Mn382      Cl395   2.550       .  S
C383        C459   1.438       .  S
C384        C472   1.438       .  S
N385        N386   1.321       .  A
N385        N391   1.316       .  A
N385       Mn551   2.206       .  S
N386        C396   1.351       .  A
N387        N388   1.321       .  A
N387       Mn394   2.206       .  S
N388        C397   1.351   1_655  A
N389        N390   1.321       .  A
N389       Mn393   2.206       .  S
N391        N392   1.321       .  A
N392        C396   1.351       .  A
Mn393       N543   2.206   1_545  S
Mn394      Cl395   2.550       .  S
C396        C462   1.439       .  S
C397        C446   1.439       .  S
N398        N399   1.321       .  A
N398       Mn427   2.206       .  S
N400        N402   1.316       .  A
N400        N401   1.321       .  A
N401        C407   1.351       .  A
N402        N403   1.321       .  A
N402       Mn585   2.206   1_545  S
N403        C407   1.351       .  A
N404        N405   1.321       .  A
N404       Mn416   2.206       .  S
N405        C564   1.351       .  A
C406        C443   1.439       .  S
C406        N563   1.351       .  A
C407        C464   1.439       .  S
N408        N414   1.317       .  A
N408        N409   1.322       .  A
N408       Mn438   2.209       .  S
N409        C417   1.352       .  A
N410        N411   1.322       .  A
N410        N412   1.317       .  A
N410       Mn416   2.208       .  S
N411        C418   1.352       .  A
N412        N413   1.320       .  A
N412       Mn438   2.203       .  S
N413        C418   1.350       .  A
N414        N415   1.320       .  A
N414       Mn416   2.203       .  S
N415        C417   1.350       .  A
C417        C451   1.438       .  S
C418        C467   1.438       .  S
N419        N420   1.320       .  A
N419        N425   1.317       .  A
N419       Mn427   2.203       .  S
N420        C428   1.350       .  A
N421        N423   1.317       .  A
N421        N422   1.320       .  A
N421       Mn439   2.203       .  S
N422        C429   1.350       .  A
N423        N424   1.322       .  A
N423       Mn427   2.209       .  S
N424        C429   1.352       .  A
N425        N426   1.322       .  A
N425       Mn439   2.208       .  S
N426        C428   1.352       .  A
Mn427       N560   2.206       .  S
Mn427      Cl440   2.550       .  S
C428        C453   1.438       .  S
C429        C466   1.438       .  S
N430        N431   1.321       .  A
N430        N436   1.316       .  A
N430       Mn596   2.206       .  S
N431        C441   1.351       .  A
N432        N433   1.321       .  A
N432       Mn439   2.206       .  S
N433        C442   1.351   1_655  A
N434        N435   1.321       .  A
N434       Mn438   2.206       .  S
N436        N437   1.321       .  A
N437        C441   1.351       .  A
Mn438       N588   2.206   1_545  S
Mn439      Cl440   2.550       .  S
C441        C456   1.439       .  S
C442        C450   1.439       .  S
C444        C445   1.415   1_655  S
C445        C446   1.207       .  T
C447        C448   1.207       .  T
C448        C449   1.415   1_655  S
C449        C450   1.207       .  T
C451        C452   1.207       .  T
C453        C454   1.207       .  T
C455        C456   1.208       .  T
C457        C458   1.207       .  T
C459        C460   1.207       .  T
C461        C462   1.208       .  T
C463        C464   1.208       .  T
C465        C466   1.207       .  T
C467        C468   1.207       .  T
C469        C470   1.208       .  T
C471        C472   1.207       .  T
C473        C474   1.207       .  T
C475        C476   1.404       .  A
C475        C480   1.404       .  A
C475        C628   1.443       .  S
C476        C477   1.402       .  A
C476        H481   1.084       .  S
C477        C478   1.401       .  A
C477        C631   1.442       .  S
C478        C479   1.401       .  A
C478        H482   1.085       .  S
C479        C480   1.402       .  A
C479        C629   1.442       .  S
C480        H483   1.084       .  S
C484        C485   1.404       .  A
C484        C489   1.404       .  A
C484        C621   1.443       .  S
C485        C486   1.402       .  A
C485        H490   1.084       .  S
C486        C487   1.401       .  A
C486        C623   1.442       .  S
C487        C488   1.401       .  A
C487        H491   1.085       .  S
C488        C489   1.402       .  A
C488        C626   1.442       .  S
C489        H492   1.084       .  S
C493        C494   1.404       .  A
C493        C498   1.404       .  A
C493        C619   1.443       .  S
C494        C495   1.402       .  A
C494        H499   1.084       .  S
C495        C496   1.401       .  A
C495        C615   1.442       .  S
C496        C497   1.401       .  A
C496        H500   1.085       .  S
C497        C498   1.402       .  A
C497        C618   1.442       .  S
C498        H501   1.084       .  S
C502        C503   1.404       .  A
C502        C507   1.404       .  A
C502        C613   1.443       .  S
C503        C504   1.402       .  A
C503        H508   1.084       .  S
C504        C505   1.401       .  A
C504        C612   1.442       .  S
C505        C506   1.401       .  A
C505        H509   1.085       .  S
C506        C507   1.402       .  A
C506        C610   1.442       .  S
C507        H510   1.084       .  S
N511        N512   1.321       .  A
N511       Mn540   2.206   1_554  S
N513        N515   1.316       .  A
N513        N514   1.321       .  A
N514        C520   1.351       .  A
N515        N516   1.321       .  A
N516        C520   1.351       .  A
N517        N518   1.321       .  A
N517       Mn529   2.206   1_554  S
C520        C627   1.439       .  S
N521        N527   1.317       .  A
N521        N522   1.322       .  A
N521       Mn551   2.209       .  S
N522        C530   1.352       .  A
N523        N524   1.322       .  A
N523        N525   1.317       .  A
N523       Mn529   2.208       .  S
N524        C531   1.352       .  A
N525        N526   1.320       .  A
N525       Mn551   2.203       .  S
N526        C531   1.350       .  A
N527        N528   1.320       .  A
N527       Mn529   2.203       .  S
N528        C530   1.350       .  A
C530        C616   1.438       .  S
C531        C632   1.438       .  S
N532        N533   1.320       .  A
N532        N538   1.317       .  A
N532       Mn540   2.203       .  S
N533        C541   1.350       .  A
N534        N536   1.317       .  A
N534        N535   1.320       .  A
N534       Mn552   2.203       .  S
N535        C542   1.350       .  A
N536        N537   1.322       .  A
N536       Mn540   2.209       .  S
N537        C542   1.352       .  A
N538        N539   1.322       .  A
N538       Mn552   2.208       .  S
N539        C541   1.352       .  A
Mn540      Cl553   2.550       .  S
C541        C617   1.438       .  S
C542        C630   1.438       .  S
N543        N544   1.321       .  A
N543        N549   1.316       .  A
N544        C554   1.351       .  A
N545        N546   1.321       .  A
N545       Mn552   2.206       .  S
N546        C555   1.351   1_655  A
N547        N548   1.321       .  A
N547       Mn551   2.206       .  S
N549        N550   1.321       .  A
N550        C554   1.351       .  A
Mn552      Cl553   2.550       .  S
C554        C620   1.439       .  S
C555        C604   1.439       .  S
N556        N557   1.321       .  A
N556       Mn585   2.206       .  S
N558        N560   1.316       .  A
N558        N559   1.321       .  A
N559        C565   1.351       .  A
N560        N561   1.321       .  A
N561        C565   1.351       .  A
N562        N563   1.321       .  A
N562       Mn574   2.206       .  S
C564        C601   1.439   1_545  S
C565        C622   1.439       .  S
N566        N572   1.317       .  A
N566        N567   1.322       .  A
N566       Mn596   2.209       .  S
N567        C575   1.352       .  A
N568        N569   1.322       .  A
N568        N570   1.317       .  A
N568       Mn574   2.208       .  S
N569        C576   1.352       .  A
N570        N571   1.320       .  A
N570       Mn596   2.203       .  S
N571        C576   1.350       .  A
N572        N573   1.320       .  A
N572       Mn574   2.203       .  S
N573        C575   1.350       .  A
C575        C609   1.438       .  S
C576        C625   1.438       .  S
N577        N578   1.320       .  A
N577        N583   1.317       .  A
N577       Mn585   2.203       .  S
N578        C586   1.350       .  A
N579        N581   1.317       .  A
N579        N580   1.320       .  A
N579       Mn597   2.203       .  S
N580        C587   1.350       .  A
N581        N582   1.322       .  A
N581       Mn585   2.209       .  S
N582        C587   1.352       .  A
N583        N584   1.322       .  A
N583       Mn597   2.208       .  S
N584        C586   1.352       .  A
Mn585      Cl598   2.550       .  S
C586        C611   1.438       .  S
C587        C624   1.438       .  S
N588        N589   1.321       .  A
N588        N594   1.316       .  A
N589        C599   1.351       .  A
N590        N591   1.321       .  A
N590       Mn597   2.206       .  S
N591        C600   1.351   1_655  A
N592        N593   1.321       .  A
N592       Mn596   2.206       .  S
N594        N595   1.321       .  A
N595        C599   1.351       .  A
Mn597      Cl598   2.550       .  S
C599        C614   1.439       .  S
C600        C608   1.439       .  S
C602        C603   1.415   1_655  S
C603        C604   1.207       .  T
C605        C606   1.207       .  T
C606        C607   1.415   1_655  S
C607        C608   1.207       .  T
C609        C610   1.207       .  T
C611        C612   1.207       .  T
C613        C614   1.208       .  T
C615        C616   1.207       .  T
C617        C618   1.207       .  T
C619        C620   1.208       .  T
C621        C622   1.208       .  T
C623        C624   1.207       .  T
C625        C626   1.207       .  T
C627        C628   1.208       .  T
C629        C630   1.207       .  T
C631        C632   1.207       .  T
