geometry optimzed in LAMMPS
_audit_creation_date              2020-11-30 
_audit_creation_method            'lammps2cif' 
_symmetry_space_group_name_H-M    'P1' 
_symmetry_Int_Tables_number       1 
_symmetry_cell_setting            triclinic 
loop_ 
_symmetry_equiv_pos_as_xyz 
  x,y,z 
_cell_length_a                    29.86791475423694 
_cell_length_b                    47.708624435200335 
_cell_length_c                    44.522175357890355 
_cell_angle_alpha                 89.99731272900566 
_cell_angle_beta                  89.72342181159773 
_cell_angle_gamma                 90.33830800355958 
loop_ 
_atom_site_label 
_atom_site_type_symbol 
_atom_site_fract_x 
_atom_site_fract_y 
_atom_site_fract_z 
_atom_site_charge 
O1          O  0.21571490  0.99930007  0.04283004    -0.73190
O2          O  0.21151903  0.99821159  0.45263747    -0.74170
O3          O  0.21402468  0.95677612  0.49797342    -0.62790
O4          O  0.21299781  0.04093801  0.99750275    -0.71200
O5          O  0.28734502  0.04150288  0.99701106    -0.70750
O6          O  0.28823744  0.95747145  0.49456233    -0.62000
O7          O  0.28547905  0.00075135  0.45064089    -0.74510
O8          O  0.28968068  0.99791768  0.04086425    -0.73290
Cu9        Cu  0.21097924  0.99881718  0.49778057     1.04560
Cu10       Cu  0.29026387  0.99947033  0.99570008     1.04330
C11         C  0.25341804  0.99828572  0.05621809     0.93010
C12         C  0.24774408  0.99940176  0.43728545     0.92150
C13         C  0.25132467  0.94391203  0.99622213     0.84300
C14         C  0.25004559  0.05445314  0.49745071     0.90570
O15         O  0.21643775  0.00048936  0.20039055    -0.73190
O16         O  0.20844389  0.99966869  0.29088473    -0.74170
O17         O  0.21088935  0.04267117  0.24564235    -0.62790
O18         O  0.21346798  0.95840293  0.24560366    -0.71200
O19         O  0.28752694  0.95953948  0.24960774    -0.70750
O20         O  0.28509947  0.04385553  0.24617097    -0.62000
O21         O  0.28219728  0.00288060  0.29307293    -0.74510
O22         O  0.29023785  0.99949468  0.20285470    -0.73290
Cu23       Cu  0.20973881  0.00038489  0.24552054     1.04560
Cu24       Cu  0.28881280  0.00160708  0.24802327     1.04330
C25         C  0.25451821  0.99909373  0.18721018     0.93010
C26         C  0.24431817  0.00055276  0.30639359     0.92150
C27         C  0.24757477  0.05660954  0.24564210     0.84300
C28         C  0.25084693  0.94574745  0.24792124     0.90570
C29         C  0.29064502  0.21986414  0.50031435     0.02890
C30         C  0.29031457  0.19047323  0.50032312    -0.13260
C31         C  0.24970508  0.17558880  0.49935332     0.00390
C32         C  0.20923904  0.19035817  0.49864890    -0.11790
C33         C  0.20925463  0.21975316  0.49916749     0.02880
C34         C  0.25002599  0.23444083  0.49993945    -0.11210
H35         H  0.32168353  0.17919197  0.50076005     0.08470
H36         H  0.17776139  0.17899875  0.49778981     0.06000
H37         H  0.25015169  0.25717724  0.50007589     0.05850
C38         C  0.28836718  0.22216726  0.25136267     0.02890
C39         C  0.28772898  0.19281152  0.25001329    -0.13260
C40         C  0.24708951  0.17820807  0.24697091     0.00390
C41         C  0.20696776  0.19328632  0.24545507    -0.11790
C42         C  0.20727173  0.22253641  0.24810394     0.02880
C43         C  0.24797868  0.23697058  0.25090148    -0.11210
H44         H  0.31890702  0.18136688  0.25106594     0.08470
H45         H  0.17541241  0.18222941  0.24300894     0.06000
H46         H  0.24825299  0.25965214  0.25257877     0.05850
C47         C  0.29414788  0.77891062  0.49891603     0.02890
C48         C  0.29377589  0.80822502  0.49701543    -0.13260
C49         C  0.25316239  0.82283678  0.49817740     0.00390
C50         C  0.21278563  0.80777620  0.50043424    -0.11790
C51         C  0.21284821  0.77839064  0.50150197     0.02880
C52         C  0.25368757  0.76403153  0.50114575    -0.11210
H53         H  0.32509939  0.81966469  0.49513110     0.08470
H54         H  0.18128243  0.81890523  0.50114494     0.06000
H55         H  0.25396086  0.74132829  0.50239234     0.05850
C56         C  0.29113406  0.78015286  0.25095564     0.02890
C57         C  0.29152578  0.80953508  0.25143461    -0.13260
C58         C  0.25130227  0.82453418  0.24986066     0.00390
C59         C  0.21057389  0.80975429  0.24850227    -0.11790
C60         C  0.20995948  0.78038670  0.24936937     0.02880
C61         C  0.25029586  0.76559697  0.25025293    -0.11210
H62         H  0.32315746  0.82069508  0.25259624     0.08470
H63         H  0.17931345  0.82108618  0.24721494     0.06000
H64         H  0.24990548  0.74286241  0.25042428     0.05850
C65         C  0.46202348  0.72006893  0.50058299     0.02890
C66         C  0.00320006  0.73431479  0.50107094    -0.13300
C67         C  0.04337588  0.71927052  0.50231596     0.00390
C68         C  0.04207004  0.68984689  0.50300779    -0.11790
C69         C  0.00093009  0.67551740  0.50219515     0.02880
C70         C  0.46100463  0.69071634  0.50101114    -0.11210
H71         H  0.00397068  0.75704117  0.50050131     0.08470
H72         H  0.07299740  0.67813378  0.50394525     0.06000
H73         H  0.42917969  0.67972229  0.50047646     0.05850
C74         C  0.45936623  0.72177189  0.25020403     0.02890
C75         C  0.99995600  0.73662437  0.25069810    -0.13260
C76         C  0.04055615  0.72212676  0.25177265     0.00390
C77         C  0.04045322  0.69278053  0.25301229    -0.11790
C78         C  0.99999459  0.67772000  0.25177437     0.02880
C79         C  0.45949651  0.69239549  0.25008456    -0.11210
H80         H  0.99994544  0.75935429  0.25026926     0.08470
H81         H  0.07191076  0.68167052  0.25439126     0.06000
H82         H  0.42807157  0.68099362  0.24904232     0.05850
C83         C  0.04132616  0.27902648  0.49850423     0.02890
C84         C  0.04136173  0.30841849  0.49889619    -0.13260
C85         C  0.00086777  0.32312461  0.49911587     0.00390
C86         C  0.46022753  0.30829611  0.49895251    -0.11790
C87         C  0.45989835  0.27891693  0.49864162     0.02880
C88         C  0.00052659  0.26432792  0.49833692    -0.11210
H89         H  0.07283467  0.31981444  0.49916941     0.08470
H90         H  0.42887619  0.31960807  0.49924452     0.06000
H91         H  0.00039190  0.24159302  0.49815325     0.05850
C92         C  0.03914986  0.28072457  0.25217619     0.02890
C93         C  0.03946682  0.31006021  0.25301114    -0.13260
C94         C  0.99914300  0.32480951  0.25417654     0.00390
C95         C  0.45836949  0.31013987  0.25472330    -0.11790
C96         C  0.45782876  0.28074765  0.25374248     0.02880
C97         C  0.99833827  0.26607450  0.25244164    -0.11210
H98         H  0.07100967  0.32138189  0.25255639     0.08470
H99         H  0.42714346  0.32156404  0.25549639     0.06000
H100        H  0.99810424  0.24335433  0.25151469     0.05850
O101        O  0.46323074  0.49727712  0.45733246    -0.73190
O102        O  0.46009851  0.50111914  0.04712941    -0.74170
O103        O  0.46061853  0.54117185  0.50075779    -0.62790
O104        O  0.46214257  0.45692229  0.50392041    -0.71200
O105        O  0.03630829  0.45780565  0.50049556    -0.70750
O106        O  0.03471047  0.54183131  0.50483635    -0.62000
O107        O  0.03370831  0.49763322  0.04762450    -0.74510
O108        O  0.03651652  0.50241440  0.45801614    -0.73290
Cu109      Cu  0.45888872  0.49904692  0.50225131     1.04560
Cu110      Cu  0.03789453  0.49989609  0.50280574     1.04330
C111        C  0.00025251  0.50022417  0.44319415     0.93010
C112        C  0.99660088  0.49972700  0.06179018     0.92150
C113        C  0.99749772  0.55469717  0.50283976     0.84300
C114        C  0.99949525  0.44411627  0.50199789     0.90570
O115        O  0.46334526  0.50233869  0.20762315    -0.73190
O116        O  0.46392234  0.49869162  0.29730760    -0.74170
O117        O  0.46329945  0.54273851  0.25398878    -0.62790
O118        O  0.46360095  0.45850459  0.25086265    -0.71200
O119        O  0.03773676  0.45895168  0.25439568    -0.70750
O120        O  0.03731225  0.54307215  0.25000421    -0.62000
O121        O  0.03720877  0.50335584  0.29700114    -0.74510
O122        O  0.03680125  0.49851883  0.20708871    -0.73290
Cu123      Cu  0.46096053  0.50057606  0.25245745     1.04560
Cu124      Cu  0.03987947  0.50100431  0.25208433     1.04330
C125        C  0.99987705  0.50014651  0.19288118     0.93010
C126        C  0.00058523  0.50097477  0.31168053     0.92150
C127        C  0.00028528  0.55622803  0.25197914     0.84300
C128        C  0.00073658  0.44551787  0.25280724     0.90570
C129        C  0.03984374  0.49329663  0.39316575    -0.02090
C130        C  0.00098423  0.50109889  0.40957684     0.07590
C131        C  0.46247693  0.50959465  0.39352113    -0.02200
C132        C  0.46176104  0.50862763  0.36188432    -0.02200
C133        C  0.00063781  0.50088547  0.34537450     0.07720
C134        C  0.03973552  0.49329460  0.36147467    -0.02400
Br135      Br  0.09380915  0.48110224  0.34103597    -0.00950
Br136      Br  0.09434724  0.48184152  0.41321312    -0.01020
Br137      Br  0.40615115  0.51848640  0.34224947    -0.00980
Br138      Br  0.41072006  0.52502066  0.41411210    -0.00960
C139        C  0.03619373  0.50983407  0.14231508    -0.02090
C140        C  0.99913279  0.49969371  0.15927743     0.07590
C141        C  0.46064746  0.48986774  0.14373486    -0.02200
C142        C  0.45943523  0.49009062  0.11207324    -0.02200
C143        C  0.99630888  0.50061315  0.09529001     0.07720
C144        C  0.03373383  0.51163147  0.11081259    -0.02400
Br145      Br  0.08051651  0.53209993  0.08964279    -0.00950
Br146      Br  0.09166099  0.52145061  0.16108082    -0.01020
Br147      Br  0.40639261  0.47543532  0.09247453    -0.00980
Br148      Br  0.40944138  0.47414747  0.16495281    -0.00960
C149        C  0.49383809  0.39964736  0.22637391    -0.02090
C150        C  0.00086329  0.41467395  0.25317813     0.07590
C151        C  0.00799389  0.40017884  0.28030122    -0.02200
C152        C  0.00747677  0.37068484  0.28066530    -0.02200
C153        C  0.99969265  0.35570739  0.25392008     0.07720
C154        C  0.49319419  0.37018925  0.22674122    -0.02400
Br155      Br  0.48466370  0.34959351  0.18988981    -0.00950
Br156      Br  0.48687827  0.41941110  0.18895795    -0.01020
Br157      Br  0.01707820  0.35067783  0.31773842    -0.00980
Br158      Br  0.01757022  0.42074956  0.31700928    -0.00960
C159        C  0.48694801  0.39772107  0.02687973    -0.02090
C160        C  0.00014444  0.41319033  0.50133535     0.07590
C161        C  0.01397591  0.39903673  0.47512040    -0.02200
C162        C  0.01438241  0.36954549  0.47439612    -0.02200
C163        C  0.00093098  0.35410297  0.49991332     0.07720
C164        C  0.48728511  0.36823795  0.02618199    -0.02400
Br165      Br  0.47039123  0.34716232  0.06154840    -0.00950
Br166      Br  0.47033930  0.41689407  0.06330036    -0.01020
Br167      Br  0.03191297  0.35025418  0.43810406    -0.00980
Br168      Br  0.03059184  0.42002092  0.43974987    -0.00960
C169        C  0.47863935  0.63164368  0.27530365    -0.02090
C170        C  0.00010016  0.64661202  0.25191485     0.07590
C171        C  0.02171003  0.63179699  0.22860938    -0.02200
C172        C  0.02232130  0.60231259  0.22890279    -0.02200
C173        C  0.00026436  0.58729902  0.25199182     0.07720
C174        C  0.47828323  0.60212768  0.27513638    -0.02400
Br175      Br  0.44958572  0.58218361  0.30767379    -0.00950
Br176      Br  0.45149178  0.65143004  0.30851522    -0.01020
Br177      Br  0.05179890  0.58270684  0.19666998    -0.00980
Br178      Br  0.04865862  0.65171628  0.19525121    -0.00960
C179        C  0.48491286  0.60047640  0.02856671    -0.02090
C180        C  0.99734034  0.58551943  0.50259218     0.07590
C181        C  0.01029581  0.60002407  0.47639583    -0.02200
C182        C  0.01096868  0.62949960  0.47616761    -0.02200
C183        C  0.99954200  0.64453363  0.50234003     0.07720
C184        C  0.48624344  0.62998117  0.02850695    -0.02400
Br185      Br  0.47076927  0.65050236  0.06440751    -0.00950
Br186      Br  0.46711448  0.58042569  0.06436437    -0.01020
Br187      Br  0.02581451  0.64926464  0.43964836    -0.00980
Br188      Br  0.02619310  0.57938386  0.44064033    -0.00960
C189        C  0.14750076  0.75578525  0.22297548    -0.02090
C190        C  0.16681843  0.76522020  0.24995046     0.07590
C191        C  0.14454947  0.76071546  0.27752268    -0.02200
C192        C  0.10278634  0.74697131  0.27809122    -0.02200
C193        C  0.08346868  0.73753735  0.25112153     0.07720
C194        C  0.10571706  0.74205708  0.22354294    -0.02400
Br195      Br  0.07853469  0.72977620  0.18655771    -0.00950
Br196      Br  0.17848971  0.76165241  0.18535710    -0.01020
Br197      Br  0.07188190  0.74098920  0.31572039    -0.00980
Br198      Br  0.17176988  0.77293370  0.31451774    -0.00960
C199        C  0.35256123  0.75555888  0.27793337    -0.02090
C200        C  0.33375452  0.76472197  0.25074257     0.07590
C201        C  0.35611685  0.75975910  0.22332638    -0.02200
C202        C  0.39757530  0.74594547  0.22314440    -0.02200
C203        C  0.41647293  0.73689595  0.25035173     0.07720
C204        C  0.39402028  0.74175414  0.27775335    -0.02400
Br205      Br  0.42057945  0.72991814  0.31504137    -0.00950
Br206      Br  0.32138165  0.76197360  0.31533399    -0.01020
Br207      Br  0.42862637  0.73935980  0.18572715    -0.00980
Br208      Br  0.32947383  0.77150393  0.18603528    -0.00960
C209        C  0.14212371  0.76369375  0.02777397    -0.02090
C210        C  0.16996156  0.76272776  0.50212787     0.07590
C211        C  0.15620128  0.74750798  0.47660776    -0.02200
C212        C  0.11470296  0.73344419  0.47666495    -0.02200
C213        C  0.08689823  0.73428543  0.50232671     0.07720
C214        C  0.10066408  0.74949536  0.02787534    -0.02400
Br215      Br  0.06314931  0.75044793  0.06325500    -0.00950
Br216      Br  0.16137667  0.78388577  0.06305658    -0.01020
Br217      Br  0.09504388  0.71415675  0.44095952    -0.00980
Br218      Br  0.19340065  0.74679102  0.44102547    -0.00960
C219        C  0.35989693  0.76007305  0.02654868    -0.02090
C220        C  0.33714817  0.76387101  0.49922058     0.07590
C221        C  0.35561534  0.75356129  0.47225659    -0.02200
C222        C  0.39685076  0.73947081  0.47263079    -0.02200
C223        C  0.41965582  0.73576881  0.49995798     0.07720
C224        C  0.40121915  0.74613344  0.02690244    -0.02400
Br225      Br  0.43222837  0.74069106  0.06435239    -0.00950
Br226      Br  0.33387601  0.77346599  0.06356338    -0.01020
Br227      Br  0.42239988  0.72534186  0.43577361    -0.00980
Br228      Br  0.32430912  0.75877099  0.43490217    -0.00960
C229        C  0.35829808  0.23645211  0.27825379    -0.02090
C230        C  0.33153610  0.23737133  0.25228169     0.07590
C231        C  0.34652407  0.25219951  0.22672419    -0.02200
C232        C  0.38807422  0.26614159  0.22715913    -0.02200
C233        C  0.41469366  0.26545800  0.25319766     0.07720
C234        C  0.39987559  0.25046545  0.27870160    -0.02400
Br235      Br  0.43609294  0.24962869  0.31445908    -0.00950
Br236      Br  0.33737290  0.21663728  0.31347544    -0.01020
Br237      Br  0.40932146  0.28526292  0.19160445    -0.00980
Br238      Br  0.31081941  0.25263593  0.19067805    -0.00960
C239        C  0.10046345  0.25481106  0.27758702    -0.02090
C240        C  0.08183674  0.26547324  0.25097533     0.07590
C241        C  0.10468938  0.26247357  0.22341849    -0.02200
C242        C  0.14607573  0.24860041  0.22245661    -0.02200
C243        C  0.16461827  0.23785834  0.24906535     0.07720
C244        C  0.14200584  0.24118268  0.27666407    -0.02400
Br245      Br  0.16849769  0.22758168  0.31327402    -0.00950
Br246      Br  0.06928542  0.25929353  0.31532797    -0.01020
Br247      Br  0.17751269  0.24430848  0.18481711    -0.00980
Br248      Br  0.07893662  0.27718394  0.18704953    -0.00960
C249        C  0.36116868  0.23528432  0.02573048    -0.02090
C250        C  0.33371532  0.23529114  0.50005705     0.07590
C251        C  0.34783822  0.24950744  0.47386713    -0.02200
C252        C  0.38933240  0.26359486  0.47333611    -0.02200
C253        C  0.41681397  0.26353541  0.49898558     0.07720
C254        C  0.40269727  0.24934654  0.02518046    -0.02400
Br255      Br  0.43970698  0.24987383  0.06061466    -0.00950
Br256      Br  0.34116659  0.21676621  0.06198614    -0.01020
Br257      Br  0.40923523  0.28228078  0.43714431    -0.00980
Br258      Br  0.31094463  0.24897632  0.43837104    -0.00960
C259        C  0.15112990  0.24859435  0.02516879    -0.02090
C260        C  0.16643209  0.23511990  0.49890283     0.07590
C261        C  0.14059037  0.23601744  0.47250546    -0.02200
C262        C  0.09945224  0.25023375  0.47241367    -0.02200
C263        C  0.08416006  0.26369181  0.49868177     0.07720
C264        C  0.11002040  0.26282662  0.02506589    -0.02400
Br265      Br  0.08838150  0.28044981  0.06133517    -0.00950
Br266      Br  0.18596638  0.24691736  0.06153265    -0.01020
Br267      Br  0.06451824  0.25190093  0.43609796    -0.00980
Br268      Br  0.16230539  0.21850265  0.43620728    -0.00960
C269        C  0.26998313  0.10307643  0.22312472    -0.02090
C270        C  0.24658604  0.08775874  0.24539269     0.07590
C271        C  0.22255406  0.10241534  0.26770005    -0.02200
C272        C  0.22334157  0.13187930  0.26852496    -0.02200
C273        C  0.24647797  0.14712606  0.24611936     0.07720
C274        C  0.26931274  0.13260156  0.22314830    -0.02400
Br275      Br  0.29809685  0.15306893  0.19084912    -0.00950
Br276      Br  0.30122088  0.08384531  0.19153884    -0.01020
Br277      Br  0.19482877  0.15112848  0.30162281    -0.00980
Br278      Br  0.18972825  0.08242028  0.29812142    -0.00960
C279        C  0.27423006  0.89989105  0.22600826    -0.02090
C280        C  0.25158687  0.91486115  0.24866521     0.07590
C281        C  0.22931972  0.90028755  0.27191196    -0.02200
C282        C  0.22996041  0.87079900  0.27265485    -0.02200
C283        C  0.25177265  0.85567104  0.24959568     0.07720
C284        C  0.27377088  0.87038525  0.22618386    -0.02400
Br285      Br  0.30134289  0.85035710  0.19331990    -0.00950
Br286      Br  0.30423893  0.91986498  0.19390105    -0.01020
Br287      Br  0.20263569  0.85137716  0.30616827    -0.00980
Br288      Br  0.19934417  0.92082008  0.30346692    -0.00960
C289        C  0.27629805  0.98343583  0.35539463    -0.02090
C290        C  0.24269682  0.99844990  0.33993302     0.07590
C291        C  0.20833840  0.01139041  0.35693086    -0.02200
C292        C  0.21152749  0.01313440  0.38846197    -0.02200
C293        C  0.24590156  0.99891161  0.40384239     0.07720
C294        C  0.27732534  0.98320804  0.38708226    -0.02400
Br295      Br  0.32034007  0.95965636  0.40722372    -0.00950
Br296      Br  0.31849456  0.96039265  0.33355023    -0.01020
Br297      Br  0.17014264  0.03696657  0.41001634    -0.00980
Br298      Br  0.15485258  0.02535840  0.33818132    -0.00960
C299        C  0.29165715  0.01004052  0.13701932    -0.02090
C300        C  0.25679882  0.99690939  0.15367424     0.07590
C301        C  0.22343316  0.98176247  0.13786018    -0.02200
C302        C  0.22306581  0.98159571  0.10615929    -0.02200
C303        C  0.25507958  0.99736538  0.08969152     0.07720
C304        C  0.28941034  0.01157361  0.10542506    -0.02400
Br305      Br  0.33213610  0.03512439  0.08428138    -0.00950
Br306      Br  0.34425131  0.02511766  0.15641599    -0.01020
Br307      Br  0.17995784  0.95807760  0.08562307    -0.00980
Br308      Br  0.18036288  0.95863419  0.15922224    -0.00960
C309        C  0.26800222  0.13008804  0.47403360    -0.02090
C310        C  0.24961765  0.14452094  0.49883413     0.07590
C311        C  0.23130557  0.12924776  0.02316443    -0.02200
C312        C  0.23106850  0.09973931  0.02256833    -0.02200
C313        C  0.24978830  0.08537082  0.49790218     0.07720
C314        C  0.26842976  0.10058618  0.47370981    -0.02400
Br315      Br  0.29295929  0.08095407  0.43951289    -0.00950
Br316      Br  0.29098550  0.15066940  0.43986139    -0.01020
Br317      Br  0.20687688  0.07894248  0.05619750    -0.00980
Br318      Br  0.20827813  0.14868827  0.05796461    -0.00960
C319        C  0.23227164  0.86823811  0.47350402    -0.02090
C320        C  0.25291987  0.85391646  0.49746209     0.07590
C321        C  0.27304160  0.86934744  0.02092928    -0.02200
C322        C  0.27298233  0.89882130  0.02024647    -0.02200
C323        C  0.25189660  0.91304043  0.49652140     0.07720
C324        C  0.23134529  0.89774306  0.47323541    -0.02400
Br325      Br  0.20343842  0.91729281  0.44034367    -0.00950
Br326      Br  0.20683753  0.84756844  0.44034097    -0.01020
Br327      Br  0.30016347  0.91978998  0.05258110    -0.00980
Br328      Br  0.29881608  0.85029610  0.05492362    -0.00960
O329        O  0.21571535  0.99929882  0.54283002    -0.73190
O330        O  0.21151854  0.99821283  0.95263746    -0.74170
O331        O  0.21402400  0.95677741  0.99797342    -0.62790
O332        O  0.21299816  0.04093673  0.49750275    -0.71200
O333        O  0.28734538  0.04150169  0.49701105    -0.70750
O334        O  0.28823677  0.95747261  0.99456230    -0.62000
O335        O  0.28547856  0.00075253  0.95064089    -0.74510
O336        O  0.28968113  0.99791655  0.54086427    -0.73290
Cu337      Cu  0.21097875  0.99881846  0.99778057     1.04560
Cu338      Cu  0.29026436  0.99946916  0.49570009     1.04330
C339        C  0.25341847  0.99828459  0.55621809     0.93010
C340        C  0.24774360  0.99940290  0.93728544     0.92150
C341        C  0.25132541  0.94391080  0.49622215     0.84300
C342        C  0.25004527  0.05445438  0.99745072     0.90570
O343        O  0.21643777  0.00048925  0.70039050    -0.73190
O344        O  0.20844366  0.99966883  0.79088467    -0.74170
O345        O  0.21088928  0.04267119  0.74564219    -0.62790
O346        O  0.21346786  0.95840294  0.74560372    -0.71200
O347        O  0.28752681  0.95953949  0.74960789    -0.70750
O348        O  0.28509941  0.04385553  0.74617087    -0.62000
O349        O  0.28219704  0.00288075  0.79307294    -0.74510
O350        O  0.29023786  0.99949455  0.70285473    -0.73290
Cu351      Cu  0.20973871  0.00038490  0.74552048     1.04560
Cu352      Cu  0.28881269  0.00160709  0.74802329     1.04330
C353        C  0.25451826  0.99909354  0.68721017     0.93010
C354        C  0.24431789  0.00055298  0.80639357     0.92150
C355        C  0.24757471  0.05660955  0.74564195     0.84300
C356        C  0.25084680  0.94574746  0.74792135     0.90570
C357        C  0.29064473  0.21986534  0.00031437     0.02890
C358        C  0.29031419  0.19047444  0.00032310    -0.13260
C359        C  0.24970465  0.17559005  0.99935329     0.00390
C360        C  0.20923865  0.19035948  0.99864892    -0.11790
C361        C  0.20925433  0.21975448  0.99916754     0.02880
C362        C  0.25002575  0.23444209  0.99993950    -0.11210
H363        H  0.32168311  0.17919314  0.00076002     0.08470
H364        H  0.17776097  0.17900010  0.99778983     0.06000
H365        H  0.25015153  0.25717850  0.00007596     0.05850
C366        C  0.28836718  0.22216726  0.75136265     0.02890
C367        C  0.28772897  0.19281152  0.75001323    -0.13260
C368        C  0.24708950  0.17820807  0.74697086     0.00390
C369        C  0.20696775  0.19328633  0.74545505    -0.11790
C370        C  0.20727172  0.22253641  0.74810395     0.02880
C371        C  0.24797868  0.23697058  0.75090149    -0.11210
H372        H  0.31890702  0.18136688  0.75106586     0.08470
H373        H  0.17541240  0.18222942  0.74300894     0.06000
H374        H  0.24825299  0.25965214  0.75257880     0.05850
C375        C  0.29414698  0.77891197  0.99891600     0.02890
C376        C  0.29377479  0.80822636  0.99701536    -0.13260
C377        C  0.25316121  0.82283801  0.99817737     0.00390
C378        C  0.21278454  0.80777733  0.00043422    -0.11790
C379        C  0.21284732  0.77839176  0.00150201     0.02880
C380        C  0.25368679  0.76403277  0.00114579    -0.11210
H381        H  0.32509822  0.81966611  0.99513100     0.08470
H382        H  0.18128127  0.81890628  0.00114495     0.06000
H383        H  0.25396026  0.74132954  0.00239244     0.05850
C384        C  0.29113405  0.78015288  0.75095566     0.02890
C385        C  0.29152575  0.80953509  0.75143466    -0.13260
C386        C  0.25130222  0.82453419  0.74986072     0.00390
C387        C  0.21057386  0.80975428  0.74850232    -0.11790
C388        C  0.20995947  0.78038668  0.74936939     0.02880
C389        C  0.25029587  0.76559697  0.75025294    -0.11210
H390        H  0.32315742  0.82069511  0.75259630     0.08470
H391        H  0.17931340  0.82108616  0.74721499     0.06000
H392        H  0.24990551  0.74286241  0.75042426     0.05850
C393        C  0.46202264  0.72007044  0.00058309     0.02890
C394        C  0.00319940  0.73431604  0.00107110    -0.13300
C395        C  0.04337501  0.71927155  0.00231620     0.00390
C396        C  0.04206874  0.68984792  0.00300803    -0.11790
C397        C  0.00092856  0.67551867  0.00219534     0.02880
C398        C  0.46100334  0.69071786  0.00101125    -0.11210
H399        H  0.00397034  0.75704242  0.00050145     0.08470
H400        H  0.07299591  0.67813462  0.00394555     0.06000
H401        H  0.42917825  0.67972400  0.00047652     0.05850
C402        C  0.45936622  0.72177188  0.75020398     0.02890
C403        C  0.99995601  0.73662435  0.75069806    -0.13260
C404        C  0.04055615  0.72212672  0.75177257     0.00390
C405        C  0.04045318  0.69278048  0.75301214    -0.11790
C406        C  0.99999453  0.67771998  0.75177421     0.02880
C407        C  0.45949647  0.69239548  0.75008446    -0.11210
H408        H  0.99994547  0.75935427  0.75026926     0.08470
H409        H  0.07191070  0.68167046  0.75439109     0.06000
H410        H  0.42807152  0.68099363  0.74904220     0.05850
C411        C  0.04132588  0.27902790  0.99850449     0.02890
C412        C  0.04136119  0.30841993  0.99889654    -0.13260
C413        C  0.00086708  0.32312590  0.99911625     0.00390
C414        C  0.46022699  0.30829728  0.99895280    -0.11790
C415        C  0.45989806  0.27891812  0.99864183     0.02880
C416        C  0.00052642  0.26432921  0.99833714    -0.11210
H417        H  0.07283402  0.31981598  0.99916978     0.08470
H418        H  0.42887554  0.31960913  0.99924480     0.06000
H419        H  0.00039191  0.24159432  0.99815339     0.05850
C420        C  0.03914986  0.28072458  0.75217629     0.02890
C421        C  0.03946681  0.31006021  0.75301130    -0.13260
C422        C  0.99914299  0.32480951  0.75417673     0.00390
C423        C  0.45836948  0.31013987  0.75472345    -0.11790
C424        C  0.45782875  0.28074765  0.75374257     0.02880
C425        C  0.99833827  0.26607451  0.75244170    -0.11210
H426        H  0.07100966  0.32138190  0.75255657     0.08470
H427        H  0.42714345  0.32156403  0.75549655     0.06000
H428        H  0.99810424  0.24335433  0.75151471     0.05850
O429        O  0.46322766  0.49727830  0.95733248    -0.73190
O430        O  0.46010170  0.50111789  0.54712929    -0.74170
O431        O  0.46061515  0.54117312  0.00075781    -0.62790
O432        O  0.46213970  0.45692351  0.00392051    -0.71200
O433        O  0.03630543  0.45780705  0.00049571    -0.70750
O434        O  0.03470711  0.54183266  0.00483636    -0.62000
O435        O  0.03371146  0.49763178  0.54762448    -0.74510
O436        O  0.03651343  0.50241569  0.95801626    -0.73290
Cu437      Cu  0.45888556  0.49904815  0.00225138     1.04560
Cu438      Cu  0.03789139  0.49989748  0.00280582     1.04330
C439        C  0.00024951  0.50022529  0.94319421     0.93010
C440        C  0.99660400  0.49972566  0.56179012     0.92150
C441        C  0.99749432  0.55469846  0.00283976     0.84300
C442        C  0.99949250  0.44411757  0.00199802     0.90570
O443        O  0.46334602  0.50233858  0.70762284    -0.73190
O444        O  0.46392127  0.49869172  0.79730732    -0.74170
O445        O  0.46329922  0.54273849  0.75398838    -0.62790
O446        O  0.46360088  0.45850458  0.75086245    -0.71200
O447        O  0.03773660  0.45895171  0.75439620    -0.70750
O448        O  0.03731208  0.54307216  0.75000433    -0.62000
O449        O  0.03720768  0.50335606  0.79700144    -0.74510
O450        O  0.03680199  0.49851866  0.70708904    -0.73290
Cu451      Cu  0.46096038  0.50057605  0.75245713     1.04560
Cu452      Cu  0.03987930  0.50100434  0.75208467     1.04330
C453        C  0.99987807  0.50014629  0.69288119     0.93010
C454        C  0.00058390  0.50097497  0.81168055     0.92150
C455        C  0.00028505  0.55622802  0.75197897     0.84300
C456        C  0.00073649  0.44551787  0.75280743     0.90570
C457        C  0.03984134  0.49329751  0.89316606    -0.02090
C458        C  0.00098151  0.50109971  0.90957688     0.07590
C459        C  0.46247419  0.50959501  0.89352086    -0.02200
C460        C  0.46175878  0.50862782  0.86188404    -0.02200
C461        C  0.00063593  0.50088581  0.84537452     0.07720
C462        C  0.03973348  0.49329518  0.86147499    -0.02400
Br463      Br  0.09380740  0.48110270  0.84103671    -0.00950
Br464      Br  0.09434483  0.48184291  0.91321379    -0.01020
Br465      Br  0.40614905  0.51848618  0.84224874    -0.00980
Br466      Br  0.41071658  0.52502055  0.91411140    -0.00960
C467        C  0.03619576  0.50983327  0.64231528    -0.02090
C468        C  0.99913442  0.49969321  0.65927744     0.07590
C469        C  0.46064935  0.48986713  0.64373464    -0.02200
C470        C  0.45943776  0.49008958  0.61207302    -0.02200
C471        C  0.99631178  0.50061186  0.59528996     0.07720
C472        C  0.03373658  0.51163018  0.61081270    -0.02400
Br473      Br  0.08052014  0.53209794  0.58964300    -0.00950
Br474      Br  0.09166250  0.52145023  0.66108143    -0.01020
Br475      Br  0.40639551  0.47543401  0.59247408    -0.00980
Br476      Br  0.40944259  0.47414740  0.66495234    -0.00960
C477        C  0.49383812  0.39964735  0.72637410    -0.02090
C478        C  0.00086323  0.41467395  0.75317834     0.07590
C479        C  0.00799377  0.40017885  0.78030143    -0.02200
C480        C  0.00747668  0.37068484  0.78066550    -0.02200
C481        C  0.99969263  0.35570739  0.75392028     0.07720
C482        C  0.49319422  0.37018924  0.72674142    -0.02400
Br483      Br  0.48466383  0.34959350  0.68988999    -0.00950
Br484      Br  0.48687850  0.41941106  0.68895812    -0.01020
Br485      Br  0.01707807  0.35067783  0.81773863    -0.00980
Br486      Br  0.01756996  0.42074957  0.81700951    -0.00960
C487        C  0.48695040  0.39771979  0.52687958    -0.02090
C488        C  0.00014201  0.41319163  0.00133552     0.07590
C489        C  0.01397399  0.39903807  0.97512066    -0.02200
C490        C  0.01438116  0.36954683  0.97439647    -0.02200
C491        C  0.00092990  0.35410427  0.99991368     0.07720
C492        C  0.48728680  0.36823668  0.52618175    -0.02400
Br493      Br  0.47039281  0.34716109  0.56154816    -0.00950
Br494      Br  0.47034262  0.41689284  0.56330037    -0.01020
Br495      Br  0.03191235  0.35025559  0.93810451    -0.00980
Br496      Br  0.03058963  0.42002230  0.93975010    -0.00960
C497        C  0.47863923  0.63164365  0.77530349    -0.02090
C498        C  0.00010004  0.64661199  0.75191468     0.07590
C499        C  0.02170985  0.63179695  0.72860917    -0.02200
C500        C  0.02232103  0.60231255  0.72890256    -0.02200
C501        C  0.00026412  0.58729900  0.75199162     0.07720
C502        C  0.47828306  0.60212765  0.77513621    -0.02400
Br503      Br  0.44958555  0.58218355  0.80767360    -0.00950
Br504      Br  0.45149174  0.65143001  0.80851509    -0.01020
Br505      Br  0.05179843  0.58270673  0.69666970    -0.00980
Br506      Br  0.04865849  0.65171622  0.69525102    -0.00960
C507        C  0.48491586  0.60047504  0.52856669    -0.02090
C508        C  0.99733694  0.58552072  0.00259214     0.07590
C509        C  0.01029249  0.60002532  0.97639578    -0.02200
C510        C  0.01096600  0.62950085  0.97616765    -0.02200
C511        C  0.99953990  0.64453491  0.00234016     0.07720
C512        C  0.48624580  0.62997982  0.52850685    -0.02400
Br513      Br  0.47077110  0.65050095  0.56440733    -0.00950
Br514      Br  0.46711778  0.58042427  0.56436437    -0.01020
Br515      Br  0.02581196  0.64926586  0.93964841    -0.00980
Br516      Br  0.02618905  0.57938507  0.94064016    -0.00960
C517        C  0.14750080  0.75578522  0.72297547    -0.02090
C518        C  0.16681843  0.76522017  0.74995046     0.07590
C519        C  0.14454945  0.76071542  0.77752266    -0.02200
C520        C  0.10278632  0.74697126  0.77809118    -0.02200
C521        C  0.08346870  0.73753730  0.75112147     0.07720
C522        C  0.10571710  0.74205704  0.72354290    -0.02400
Br523      Br  0.07853477  0.72977616  0.68655766    -0.00950
Br524      Br  0.17848978  0.76165240  0.68535710    -0.01020
Br525      Br  0.07188184  0.74098914  0.81572033    -0.00980
Br526      Br  0.17176981  0.77293367  0.81451774    -0.00960
C527        C  0.35256126  0.75555890  0.77793337    -0.02090
C528        C  0.33375453  0.76472200  0.75074258     0.07590
C529        C  0.35611685  0.75975913  0.72332638    -0.02200
C530        C  0.39757529  0.74594550  0.72314437    -0.02200
C531        C  0.41647294  0.73689596  0.75035169     0.07720
C532        C  0.39402031  0.74175415  0.77775333    -0.02400
Br533      Br  0.42057949  0.72991812  0.81504133    -0.00950
Br534      Br  0.32138171  0.76197361  0.81533400    -0.01020
Br535      Br  0.42862633  0.73935983  0.68572711    -0.00980
Br536      Br  0.32947381  0.77150398  0.68603529    -0.00960
C537        C  0.14212454  0.76369267  0.52777385    -0.02090
C538        C  0.16996079  0.76272874  0.00212801     0.07590
C539        C  0.15620068  0.74750869  0.97660804    -0.02200
C540        C  0.11470242  0.73344482  0.97666530    -0.02200
C541        C  0.08689755  0.73428626  0.00232699     0.07720
C542        C  0.10066485  0.74949433  0.52787516    -0.02400
Br543      Br  0.06315016  0.75044671  0.56325486    -0.00950
Br544      Br  0.16137764  0.78388444  0.56305659    -0.01020
Br545      Br  0.09504359  0.71415703  0.94096002    -0.00980
Br546      Br  0.19340017  0.74679149  0.94102581    -0.00960
C547        C  0.35989782  0.76007159  0.52654866    -0.02090
C548        C  0.33714738  0.76387251  0.99922056     0.07590
C549        C  0.35561478  0.75356300  0.97225655    -0.02200
C550        C  0.39685028  0.73947260  0.97263078    -0.02200
C551        C  0.41965517  0.73577051  0.99995801     0.07720
C552        C  0.40121996  0.74613187  0.52690241    -0.02400
Br553      Br  0.43222932  0.74068957  0.56435231    -0.00950
Br554      Br  0.33387715  0.77346473  0.56356336    -0.01020
Br555      Br  0.42239967  0.72534387  0.93577359    -0.00980
Br556      Br  0.32430870  0.75877279  0.93490209    -0.00960
C557        C  0.35829805  0.23645209  0.77825380    -0.02090
C558        C  0.33153610  0.23737133  0.75228169     0.07590
C559        C  0.34652409  0.25219952  0.72672421    -0.02200
C560        C  0.38807424  0.26614160  0.72715918    -0.02200
C561        C  0.41469366  0.26545800  0.75319772     0.07720
C562        C  0.39987557  0.25046543  0.77870164    -0.02400
Br563      Br  0.43609290  0.24962864  0.81445913    -0.00950
Br564      Br  0.33737284  0.21663724  0.81347543    -0.01020
Br565      Br  0.40932151  0.28526297  0.69160453    -0.00980
Br566      Br  0.31081945  0.25263598  0.69067806    -0.00960
C567        C  0.10046347  0.25481105  0.77758708    -0.02090
C568        C  0.08183675  0.26547325  0.75097540     0.07590
C569        C  0.10468936  0.26247360  0.72341855    -0.02200
C570        C  0.14607571  0.24860043  0.72245665    -0.02200
C571        C  0.16461826  0.23785835  0.74906538     0.07720
C572        C  0.14200585  0.24118268  0.77666411    -0.02400
Br573      Br  0.16849773  0.22758165  0.81327404    -0.00950
Br574      Br  0.06928547  0.25929350  0.81532805    -0.01020
Br575      Br  0.17751264  0.24430852  0.68481714    -0.00980
Br576      Br  0.07893658  0.27718399  0.68704961    -0.00960
C577        C  0.36116890  0.23528328  0.52573044    -0.02090
C578        C  0.33371509  0.23529228  0.00005710     0.07590
C579        C  0.34783802  0.24950862  0.97386721    -0.02200
C580        C  0.38933223  0.26359601  0.97333623    -0.02200
C581        C  0.41681378  0.26353648  0.99898570     0.07720
C582        C  0.40269746  0.24934554  0.52518038    -0.02400
Br583      Br  0.43970716  0.24987293  0.56061458    -0.00950
Br584      Br  0.34116683  0.21676524  0.56198614    -0.01020
Br585      Br  0.40923508  0.28228200  0.93714448    -0.00980
Br586      Br  0.31094442  0.24897762  0.93837112    -0.00960
C587        C  0.15112998  0.24859285  0.52516872    -0.02090
C588        C  0.16643184  0.23512130  0.99890292     0.07590
C589        C  0.14059002  0.23601885  0.97250559    -0.02200
C590        C  0.09945195  0.25023522  0.97241384    -0.02200
C591        C  0.08415990  0.26369335  0.99868195     0.07720
C592        C  0.11002043  0.26282505  0.52506577    -0.02400
Br593      Br  0.08838131  0.28044815  0.56133505    -0.00950
Br594      Br  0.18596632  0.24691582  0.56153263    -0.01020
Br595      Br  0.06451783  0.25190239  0.93609818    -0.00980
Br596      Br  0.16230484  0.21850396  0.93620741    -0.00960
C597        C  0.26998300  0.10307644  0.72312456    -0.02090
C598        C  0.24658601  0.08775875  0.74539256     0.07590
C599        C  0.22255417  0.10241534  0.76770000    -0.02200
C600        C  0.22334166  0.13187929  0.76852492    -0.02200
C601        C  0.24647796  0.14712606  0.74611928     0.07720
C602        C  0.26931264  0.13260158  0.72314817    -0.02400
Br603      Br  0.29809669  0.15306897  0.69084899    -0.00950
Br604      Br  0.30122063  0.08384534  0.69153862    -0.01020
Br605      Br  0.19482897  0.15112846  0.80162282    -0.00980
Br606      Br  0.18972865  0.08242025  0.79812150    -0.00960
C607        C  0.27422996  0.89989107  0.72600837    -0.02090
C608        C  0.25158676  0.91486116  0.74866532     0.07590
C609        C  0.22931960  0.90028754  0.77191205    -0.02200
C610        C  0.22996031  0.87079899  0.77265493    -0.02200
C611        C  0.25177258  0.85567105  0.74959576     0.07720
C612        C  0.27377080  0.87038528  0.72618395    -0.02400
Br613      Br  0.30134284  0.85035714  0.69331998    -0.00950
Br614      Br  0.30423883  0.91986502  0.69390117    -0.01020
Br615      Br  0.20263558  0.85137713  0.80616833    -0.00980
Br616      Br  0.19934402  0.92082006  0.80346701    -0.00960
C617        C  0.27629776  0.98343643  0.85539477    -0.02090
C618        C  0.24269645  0.99845030  0.83993301     0.07590
C619        C  0.20833790  0.01139082  0.85693072    -0.02200
C620        C  0.21152696  0.01313510  0.88846182    -0.02200
C621        C  0.24590113  0.99891252  0.90384238     0.07720
C622        C  0.27732500  0.98320888  0.88708240    -0.02400
Br623      Br  0.32033982  0.95965741  0.90722407    -0.00950
Br624      Br  0.31849442  0.96039318  0.83355059    -0.01020
Br625      Br  0.17014194  0.03696733  0.91001594    -0.00980
Br626      Br  0.15485190  0.02535840  0.83818105    -0.00960
C627        C  0.29165725  0.01004010  0.63701928    -0.02090
C628        C  0.25679895  0.99690900  0.65367426     0.07590
C629        C  0.22343343  0.98176188  0.63786028    -0.02200
C630        C  0.22306621  0.98159485  0.60615939    -0.02200
C631        C  0.25507996  0.99736445  0.58969154     0.07720
C632        C  0.28941056  0.01157291  0.60542501    -0.02400
Br633      Br  0.33213625  0.03512362  0.58428118    -0.00950
Br634      Br  0.34425115  0.02511761  0.65641593    -0.01020
Br635      Br  0.17995842  0.95807651  0.58562331    -0.00980
Br636      Br  0.18036318  0.95863369  0.65922248    -0.00960
C637        C  0.26800184  0.13008929  0.97403359    -0.02090
C638        C  0.24961719  0.14452219  0.99883409     0.07590
C639        C  0.23130601  0.12924651  0.52316446    -0.02200
C640        C  0.23106884  0.09973807  0.52256833    -0.02200
C641        C  0.24978803  0.08537206  0.99790220     0.07720
C642        C  0.26842947  0.10058742  0.97370983    -0.02400
Br643      Br  0.29295912  0.08095532  0.93951295    -0.00950
Br644      Br  0.29098510  0.15067064  0.93986137    -0.01020
Br645      Br  0.20687718  0.07894123  0.55619749    -0.00980
Br646      Br  0.20827862  0.14868702  0.55796466    -0.00960
C647        C  0.23227040  0.86823937  0.97350406    -0.02090
C648        C  0.25291858  0.85391769  0.99746212     0.07590
C649        C  0.27304281  0.86934624  0.52092925    -0.02200
C650        C  0.27298334  0.89882010  0.52024647    -0.02200
C651        C  0.25189570  0.91304166  0.99652139     0.07720
C652        C  0.23134426  0.89774433  0.97323542    -0.02400
Br653      Br  0.20343750  0.91729412  0.94034367    -0.00950
Br654      Br  0.20683614  0.84756974  0.94034103    -0.01020
Br655      Br  0.30016431  0.91978883  0.55258113    -0.00980
Br656      Br  0.29881741  0.85029494  0.55492357    -0.00960
O657        O  0.71571491  0.99930006  0.04283004    -0.73190
O658        O  0.71151901  0.99821159  0.45263747    -0.74170
O659        O  0.71402465  0.95677612  0.49797342    -0.62790
O660        O  0.71299781  0.04093800  0.99750275    -0.71200
O661        O  0.78734502  0.04150288  0.99701105    -0.70750
O662        O  0.78823742  0.95747144  0.49456233    -0.62000
O663        O  0.78547903  0.00075135  0.45064089    -0.74510
O664        O  0.78968069  0.99791768  0.04086424    -0.73290
Cu665      Cu  0.71097922  0.99881718  0.49778057     1.04560
Cu666      Cu  0.79026387  0.99947033  0.99570007     1.04330
C667        C  0.75341805  0.99828572  0.05621808     0.93010
C668        C  0.74774406  0.99940175  0.43728544     0.92150
C669        C  0.75132468  0.94391202  0.99622213     0.84300
C670        C  0.75004559  0.05445314  0.49745071     0.90570
O671        O  0.71643776  0.00048936  0.20039055    -0.73190
O672        O  0.70844388  0.99966868  0.29088473    -0.74170
O673        O  0.71088936  0.04267117  0.24564235    -0.62790
O674        O  0.71346798  0.95840292  0.24560365    -0.71200
O675        O  0.78752694  0.95953947  0.24960774    -0.70750
O676        O  0.78509948  0.04385552  0.24617097    -0.62000
O677        O  0.78219727  0.00288060  0.29307293    -0.74510
O678        O  0.79023786  0.99949467  0.20285469    -0.73290
Cu679      Cu  0.70973881  0.00038488  0.24552053     1.04560
Cu680      Cu  0.78881280  0.00160708  0.24802327     1.04330
C681        C  0.75451822  0.99909373  0.18721017     0.93010
C682        C  0.74431816  0.00055276  0.30639359     0.92150
C683        C  0.74757478  0.05660953  0.24564210     0.84300
C684        C  0.75084693  0.94574744  0.24792123     0.90570
C685        C  0.79064503  0.21986413  0.50031434     0.02890
C686        C  0.79031459  0.19047323  0.50032310    -0.13260
C687        C  0.74970509  0.17558879  0.49935332     0.00390
C688        C  0.70923905  0.19035816  0.49864892    -0.11790
C689        C  0.70925464  0.21975315  0.49916750     0.02880
C690        C  0.75002600  0.23444082  0.49993945    -0.11210
H691        H  0.82168355  0.17919197  0.50076001     0.08470
H692        H  0.67776141  0.17899874  0.49778985     0.06000
H693        H  0.75015169  0.25717723  0.50007589     0.05850
C694        C  0.78836718  0.22216725  0.25136266     0.02890
C695        C  0.78772898  0.19281151  0.25001328    -0.13260
C696        C  0.74708951  0.17820806  0.24697091     0.00390
C697        C  0.70696776  0.19328631  0.24545507    -0.11790
C698        C  0.70727173  0.22253640  0.24810395     0.02880
C699        C  0.74797868  0.23697058  0.25090148    -0.11210
H700        H  0.81890703  0.18136687  0.25106593     0.08470
H701        H  0.67541242  0.18222940  0.24300896     0.06000
H702        H  0.74825299  0.25965213  0.25257876     0.05850
C703        C  0.79414786  0.77891062  0.49891603     0.02890
C704        C  0.79377587  0.80822502  0.49701543    -0.13260
C705        C  0.75316237  0.82283678  0.49817740     0.00390
C706        C  0.71278561  0.80777619  0.50043424    -0.11790
C707        C  0.71284820  0.77839063  0.50150197     0.02880
C708        C  0.75368756  0.76403153  0.50114574    -0.11210
H709        H  0.82509937  0.81966469  0.49513110     0.08470
H710        H  0.68128241  0.81890522  0.50114495     0.06000
H711        H  0.75396085  0.74132829  0.50239233     0.05850
C712        C  0.79113406  0.78015286  0.25095564     0.02890
C713        C  0.79152579  0.80953507  0.25143461    -0.13260
C714        C  0.75130227  0.82453418  0.24986066     0.00390
C715        C  0.71057389  0.80975428  0.24850227    -0.11790
C716        C  0.70995948  0.78038669  0.24936937     0.02880
C717        C  0.75029586  0.76559696  0.25025293    -0.11210
H718        H  0.82315747  0.82069508  0.25259624     0.08470
H719        H  0.67931345  0.82108617  0.24721493     0.06000
H720        H  0.74990549  0.74286240  0.25042428     0.05850
C721        C  0.96202349  0.72006895  0.50058299     0.02890
C722        C  0.50320005  0.73431477  0.50107094    -0.13300
C723        C  0.54337588  0.71927050  0.50231596     0.00390
C724        C  0.54207004  0.68984688  0.50300778    -0.11790
C725        C  0.50093009  0.67551738  0.50219515     0.02880
C726        C  0.96100463  0.69071635  0.50101114    -0.11210
H727        H  0.50397068  0.75704116  0.50050131     0.08470
H728        H  0.57299740  0.67813376  0.50394525     0.06000
H729        H  0.92917969  0.67972231  0.50047646     0.05850
C730        C  0.95936623  0.72177189  0.25020404     0.02890
C731        C  0.49995600  0.73662437  0.25069809    -0.13260
C732        C  0.54055615  0.72212677  0.25177264     0.00390
C733        C  0.54045321  0.69278053  0.25301227    -0.11790
C734        C  0.49999458  0.67772000  0.25177435     0.02880
C735        C  0.95949652  0.69239548  0.25008458    -0.11210
H736        H  0.49994544  0.75935429  0.25026925     0.08470
H737        H  0.57191075  0.68167052  0.25439124     0.06000
H738        H  0.92807158  0.68099362  0.24904234     0.05850
C739        C  0.54132616  0.27902646  0.49850426     0.02890
C740        C  0.54136173  0.30841847  0.49889621    -0.13260
C741        C  0.50086778  0.32312459  0.49911589     0.00390
C742        C  0.96022752  0.30829612  0.49895248    -0.11790
C743        C  0.95989835  0.27891695  0.49864158     0.02880
C744        C  0.50052659  0.26432790  0.49833696    -0.11210
H745        H  0.57283467  0.31981441  0.49916942     0.08470
H746        H  0.92887618  0.31960808  0.49924450     0.06000
H747        H  0.50039189  0.24159301  0.49815330     0.05850
C748        C  0.53914987  0.28072457  0.25217619     0.02890
C749        C  0.53946683  0.31006020  0.25301114    -0.13260
C750        C  0.49914300  0.32480950  0.25417654     0.00390
C751        C  0.95836948  0.31013987  0.25472330    -0.11790
C752        C  0.95782875  0.28074765  0.25374247     0.02880
C753        C  0.49833827  0.26607450  0.25244164    -0.11210
H754        H  0.57100967  0.32138188  0.25255639     0.08470
H755        H  0.92714345  0.32156403  0.25549639     0.06000
H756        H  0.49810424  0.24335433  0.25151469     0.05850
O757        O  0.96323071  0.49727714  0.45733247    -0.73190
O758        O  0.96009851  0.50111913  0.04712940    -0.74170
O759        O  0.96061851  0.54117187  0.50075780    -0.62790
O760        O  0.96214255  0.45692231  0.50392042    -0.71200
O761        O  0.53630831  0.45780563  0.50049555    -0.70750
O762        O  0.53471049  0.54183129  0.50483635    -0.62000
O763        O  0.53370832  0.49763323  0.04762451    -0.74510
O764        O  0.53651655  0.50241438  0.45801613    -0.73290
Cu765      Cu  0.95888870  0.49904694  0.50225132     1.04560
Cu766      Cu  0.53789456  0.49989607  0.50280573     1.04330
C767        C  0.50025255  0.50022416  0.44319415     0.93010
C768        C  0.49660088  0.49972700  0.06179018     0.92150
C769        C  0.49749774  0.55469715  0.50283976     0.84300
C770        C  0.49949527  0.44411625  0.50199788     0.90570
O771        O  0.96334526  0.50233869  0.20762315    -0.73190
O772        O  0.96392233  0.49869162  0.29730759    -0.74170
O773        O  0.96329945  0.54273851  0.25398877    -0.62790
O774        O  0.96360095  0.45850460  0.25086265    -0.71200
O775        O  0.53773676  0.45895168  0.25439569    -0.70750
O776        O  0.53731225  0.54307215  0.25000422    -0.62000
O777        O  0.53720877  0.50335584  0.29700114    -0.74510
O778        O  0.53680125  0.49851884  0.20708872    -0.73290
Cu779      Cu  0.96096053  0.50057606  0.25245745     1.04560
Cu780      Cu  0.53987947  0.50100432  0.25208434     1.04330
C781        C  0.49987705  0.50014651  0.19288119     0.93010
C782        C  0.50058524  0.50097476  0.31168053     0.92150
C783        C  0.50028527  0.55622803  0.25197914     0.84300
C784        C  0.50073659  0.44551786  0.25280724     0.90570
C785        C  0.53984375  0.49329657  0.39316574    -0.02090
C786        C  0.50098427  0.50109888  0.40957684     0.07590
C787        C  0.96247686  0.50959459  0.39352113    -0.02200
C788        C  0.96176099  0.50862758  0.36188431    -0.02200
C789        C  0.50063783  0.50088546  0.34537450     0.07720
C790        C  0.53973551  0.49329454  0.36147467    -0.02400
Br791      Br  0.59380907  0.48110208  0.34103596    -0.00950
Br792      Br  0.59434721  0.48184141  0.41321311    -0.01020
Br793      Br  0.90615108  0.51848629  0.34224946    -0.00980
Br794      Br  0.91071991  0.52502051  0.41411208    -0.00960
C795        C  0.53619373  0.50983407  0.14231509    -0.02090
C796        C  0.49913279  0.49969371  0.15927744     0.07590
C797        C  0.96064746  0.48986774  0.14373485    -0.02200
C798        C  0.95943522  0.49009061  0.11207323    -0.02200
C799        C  0.49630888  0.50061315  0.09529002     0.07720
C800        C  0.53373383  0.51163147  0.11081259    -0.02400
Br801      Br  0.58051651  0.53209994  0.08964279    -0.00950
Br802      Br  0.59166100  0.52145061  0.16108083    -0.01020
Br803      Br  0.90639261  0.47543531  0.09247453    -0.00980
Br804      Br  0.90944137  0.47414747  0.16495280    -0.00960
C805        C  0.99383808  0.39964736  0.22637391    -0.02090
C806        C  0.50086329  0.41467395  0.25317814     0.07590
C807        C  0.50799388  0.40017884  0.28030122    -0.02200
C808        C  0.50747677  0.37068484  0.28066530    -0.02200
C809        C  0.49969266  0.35570739  0.25392008     0.07720
C810        C  0.99319417  0.37018925  0.22674122    -0.02400
Br811      Br  0.98466368  0.34959351  0.18988981    -0.00950
Br812      Br  0.98687825  0.41941109  0.18895795    -0.01020
Br813      Br  0.51707820  0.35067782  0.31773841    -0.00980
Br814      Br  0.51757018  0.42074955  0.31700929    -0.00960
C815        C  0.98694801  0.39772106  0.02687973    -0.02090
C816        C  0.50014446  0.41319031  0.50133535     0.07590
C817        C  0.51397589  0.39903670  0.47512040    -0.02200
C818        C  0.51438239  0.36954546  0.47439612    -0.02200
C819        C  0.50093099  0.35410296  0.49991334     0.07720
C820        C  0.98728511  0.36823795  0.02618199    -0.02400
Br821      Br  0.97039125  0.34716231  0.06154840    -0.00950
Br822      Br  0.97033932  0.41689406  0.06330037    -0.01020
Br823      Br  0.53191290  0.35025414  0.43810405    -0.00980
Br824      Br  0.53059175  0.42002089  0.43974985    -0.00960
C825        C  0.97863935  0.63164367  0.27530367    -0.02090
C826        C  0.50010015  0.64661202  0.25191484     0.07590
C827        C  0.52171002  0.63179699  0.22860936    -0.02200
C828        C  0.52232130  0.60231258  0.22890278    -0.02200
C829        C  0.50026435  0.58729902  0.25199182     0.07720
C830        C  0.97828324  0.60212767  0.27513639    -0.02400
Br831      Br  0.94958573  0.58218359  0.30767380    -0.00950
Br832      Br  0.95149179  0.65143003  0.30851524    -0.01020
Br833      Br  0.55179890  0.58270683  0.19666997    -0.00980
Br834      Br  0.54865862  0.65171627  0.19525119    -0.00960
C835        C  0.98491286  0.60047639  0.02856671    -0.02090
C836        C  0.49734035  0.58551941  0.50259217     0.07590
C837        C  0.51029583  0.60002405  0.47639583    -0.02200
C838        C  0.51096869  0.62949958  0.47616761    -0.02200
C839        C  0.49954200  0.64453361  0.50234003     0.07720
C840        C  0.98624345  0.62998116  0.02850695    -0.02400
Br841      Br  0.97076927  0.65050235  0.06440751    -0.00950
Br842      Br  0.96711447  0.58042569  0.06436436    -0.01020
Br843      Br  0.52581452  0.64926462  0.43964836    -0.00980
Br844      Br  0.52619312  0.57938385  0.44064032    -0.00960
C845        C  0.64750077  0.75578525  0.22297548    -0.02090
C846        C  0.66681844  0.76522019  0.24995046     0.07590
C847        C  0.64454947  0.76071546  0.27752268    -0.02200
C848        C  0.60278634  0.74697131  0.27809121    -0.02200
C849        C  0.58346868  0.73753735  0.25112152     0.07720
C850        C  0.60571706  0.74205708  0.22354293    -0.02400
Br851      Br  0.57853470  0.72977620  0.18655771    -0.00950
Br852      Br  0.67848972  0.76165240  0.18535710    -0.01020
Br853      Br  0.57188189  0.74098920  0.31572038    -0.00980
Br854      Br  0.67176988  0.77293370  0.31451774    -0.00960
C855        C  0.85256123  0.75555888  0.27793338    -0.02090
C856        C  0.83375452  0.76472197  0.25074258     0.07590
C857        C  0.85611686  0.75975909  0.22332639    -0.02200
C858        C  0.89757530  0.74594546  0.22314440    -0.02200
C859        C  0.91647293  0.73689594  0.25035174     0.07720
C860        C  0.89402028  0.74175414  0.27775336    -0.02400
Br861      Br  0.92057944  0.72991813  0.31504138    -0.00950
Br862      Br  0.82138164  0.76197360  0.31533400    -0.01020
Br863      Br  0.92862638  0.73935979  0.18572716    -0.00980
Br864      Br  0.82947384  0.77150392  0.18603528    -0.00960
C865        C  0.64212372  0.76369375  0.02777396    -0.02090
C866        C  0.66996155  0.76272775  0.50212787     0.07590
C867        C  0.65620127  0.74750797  0.47660775    -0.02200
C868        C  0.61470295  0.73344418  0.47666495    -0.02200
C869        C  0.58689822  0.73428541  0.50232671     0.07720
C870        C  0.60066408  0.74949536  0.02787534    -0.02400
Br871      Br  0.56314932  0.75044793  0.06325500    -0.00950
Br872      Br  0.66137668  0.78388576  0.06305658    -0.01020
Br873      Br  0.59504387  0.71415674  0.44095951    -0.00980
Br874      Br  0.69340064  0.74679102  0.44102546    -0.00960
C875        C  0.85989693  0.76007304  0.02654867    -0.02090
C876        C  0.83714816  0.76387102  0.49922058     0.07590
C877        C  0.85561534  0.75356130  0.47225658    -0.02200
C878        C  0.89685077  0.73947082  0.47263079    -0.02200
C879        C  0.91965582  0.73576883  0.49995798     0.07720
C880        C  0.90121915  0.74613343  0.02690244    -0.02400
Br881      Br  0.93222837  0.74069105  0.06435239    -0.00950
Br882      Br  0.83387601  0.77346598  0.06356338    -0.01020
Br883      Br  0.92239989  0.72534188  0.43577361    -0.00980
Br884      Br  0.82430911  0.75877100  0.43490217    -0.00960
C885        C  0.85829808  0.23645210  0.27825378    -0.02090
C886        C  0.83153610  0.23737133  0.25228168     0.07590
C887        C  0.84652407  0.25219951  0.22672418    -0.02200
C888        C  0.88807422  0.26614159  0.22715912    -0.02200
C889        C  0.91469366  0.26545800  0.25319766     0.07720
C890        C  0.89987559  0.25046544  0.27870159    -0.02400
Br891      Br  0.93609294  0.24962868  0.31445907    -0.00950
Br892      Br  0.83737290  0.21663727  0.31347543    -0.01020
Br893      Br  0.90932145  0.28526293  0.19160445    -0.00980
Br894      Br  0.81081940  0.25263593  0.19067804    -0.00960
C895        C  0.60046345  0.25481105  0.27758702    -0.02090
C896        C  0.58183675  0.26547323  0.25097533     0.07590
C897        C  0.60468938  0.26247357  0.22341849    -0.02200
C898        C  0.64607573  0.24860040  0.22245661    -0.02200
C899        C  0.66461827  0.23785833  0.24906535     0.07720
C900        C  0.64200584  0.24118267  0.27666407    -0.02400
Br901      Br  0.66849769  0.22758167  0.31327402    -0.00950
Br902      Br  0.56928542  0.25929352  0.31532797    -0.01020
Br903      Br  0.67751269  0.24430847  0.18481711    -0.00980
Br904      Br  0.57893662  0.27718394  0.18704953    -0.00960
C905        C  0.86116871  0.23528427  0.02573045    -0.02090
C906        C  0.83371533  0.23529114  0.50005703     0.07590
C907        C  0.84783820  0.24950746  0.47386712    -0.02200
C908        C  0.88933238  0.26359489  0.47333610    -0.02200
C909        C  0.91681397  0.26353542  0.49898555     0.07720
C910        C  0.90269731  0.24934649  0.02518043    -0.02400
Br911      Br  0.93970706  0.24987373  0.06061460    -0.00950
Br912      Br  0.84116668  0.21676611  0.06198609    -0.01020
Br913      Br  0.90923517  0.28228083  0.43714430    -0.00980
Br914      Br  0.81094458  0.24897637  0.43837104    -0.00960
C915        C  0.65112990  0.24859436  0.02516882    -0.02090
C916        C  0.66643209  0.23511989  0.49890285     0.07590
C917        C  0.64059036  0.23601742  0.47250548    -0.02200
C918        C  0.59945222  0.25023372  0.47241370    -0.02200
C919        C  0.58416006  0.26369179  0.49868180     0.07720
C920        C  0.61002041  0.26282662  0.02506591    -0.02400
Br921      Br  0.58838152  0.28044983  0.06133519    -0.00950
Br922      Br  0.68596640  0.24691737  0.06153267    -0.01020
Br923      Br  0.56451820  0.25190088  0.43609800    -0.00980
Br924      Br  0.66230536  0.21850261  0.43620731    -0.00960
C925        C  0.76998310  0.10307642  0.22312470    -0.02090
C926        C  0.74658606  0.08775873  0.24539269     0.07590
C927        C  0.72255411  0.10241534  0.26770008    -0.02200
C928        C  0.72334161  0.13187929  0.26852498    -0.02200
C929        C  0.74647797  0.14712605  0.24611936     0.07720
C930        C  0.76931271  0.13260156  0.22314829    -0.02400
Br931      Br  0.79809679  0.15306892  0.19084910    -0.00950
Br932      Br  0.80122080  0.08384530  0.19153880    -0.01020
Br933      Br  0.69482885  0.15112848  0.30162284    -0.00980
Br934      Br  0.68972839  0.08242027  0.29812149    -0.00960
C935        C  0.77423006  0.89989104  0.22600826    -0.02090
C936        C  0.75158686  0.91486114  0.24866520     0.07590
C937        C  0.72931972  0.90028754  0.27191195    -0.02200
C938        C  0.72996041  0.87079900  0.27265485    -0.02200
C939        C  0.75177265  0.85567104  0.24959568     0.07720
C940        C  0.77377088  0.87038525  0.22618386    -0.02400
Br941      Br  0.80134290  0.85035709  0.19331990    -0.00950
Br942      Br  0.80423894  0.91986498  0.19390105    -0.01020
Br943      Br  0.70263568  0.85137716  0.30616827    -0.00980
Br944      Br  0.69934416  0.92082008  0.30346691    -0.00960
C945        C  0.77629804  0.98343583  0.35539463    -0.02090
C946        C  0.74269681  0.99844989  0.33993301     0.07590
C947        C  0.70833838  0.01139039  0.35693085    -0.02200
C948        C  0.71152746  0.01313439  0.38846197    -0.02200
C949        C  0.74590154  0.99891160  0.40384239     0.07720
C950        C  0.77732532  0.98320803  0.38708226    -0.02400
Br951      Br  0.82034006  0.95965636  0.40722372    -0.00950
Br952      Br  0.81849456  0.96039265  0.33355023    -0.01020
Br953      Br  0.67014260  0.03696655  0.41001633    -0.00980
Br954      Br  0.65485256  0.02535838  0.33818131    -0.00960
C955        C  0.79165717  0.01004051  0.13701932    -0.02090
C956        C  0.75679884  0.99690938  0.15367424     0.07590
C957        C  0.72343317  0.98176247  0.13786018    -0.02200
C958        C  0.72306582  0.98159570  0.10615929    -0.02200
C959        C  0.75507959  0.99736537  0.08969152     0.07720
C960        C  0.78941035  0.01157360  0.10542506    -0.02400
Br961      Br  0.83213612  0.03512438  0.08428138    -0.00950
Br962      Br  0.84425133  0.02511765  0.15641599    -0.01020
Br963      Br  0.67995786  0.95807759  0.08562307    -0.00980
Br964      Br  0.68036290  0.95863418  0.15922224    -0.00960
C965        C  0.76800218  0.13008804  0.47403358    -0.02090
C966        C  0.74961767  0.14452093  0.49883413     0.07590
C967        C  0.73130563  0.12924775  0.02316445    -0.02200
C968        C  0.73106856  0.09973930  0.02256835    -0.02200
C969        C  0.74978831  0.08537081  0.49790218     0.07720
C970        C  0.76842971  0.10058617  0.47370979    -0.02400
Br971      Br  0.79295915  0.08095406  0.43951284    -0.00950
Br972      Br  0.79098537  0.15066939  0.43986135    -0.01020
Br973      Br  0.70687703  0.07894247  0.05619755    -0.00980
Br974      Br  0.70827827  0.14868826  0.05796466    -0.00960
C975        C  0.73227161  0.86823810  0.47350403    -0.02090
C976        C  0.75291984  0.85391645  0.49746209     0.07590
C977        C  0.77304161  0.86934743  0.02092927    -0.02200
C978        C  0.77298234  0.89882129  0.02024647    -0.02200
C979        C  0.75189657  0.91304042  0.49652140     0.07720
C980        C  0.73134526  0.89774306  0.47323541    -0.02400
Br981      Br  0.70343839  0.91729281  0.44034368    -0.00950
Br982      Br  0.70683751  0.84756844  0.44034097    -0.01020
Br983      Br  0.80016348  0.91978998  0.05258110    -0.00980
Br984      Br  0.79881609  0.85029609  0.05492361    -0.00960
O985        O  0.71571534  0.99929882  0.54283002    -0.73190
O986        O  0.71151853  0.99821283  0.95263746    -0.74170
O987        O  0.71402401  0.95677741  0.99797342    -0.62790
O988        O  0.71299816  0.04093673  0.49750275    -0.71200
O989        O  0.78734537  0.04150168  0.49701104    -0.70750
O990        O  0.78823677  0.95747261  0.99456230    -0.62000
O991        O  0.78547855  0.00075252  0.95064089    -0.74510
O992        O  0.78968113  0.99791655  0.54086427    -0.73290
Cu993      Cu  0.71097875  0.99881845  0.99778057     1.04560
Cu994      Cu  0.79026434  0.99946915  0.49570009     1.04330
C995        C  0.75341846  0.99828459  0.55621809     0.93010
C996        C  0.74774359  0.99940289  0.93728544     0.92150
C997        C  0.75132538  0.94391080  0.49622215     0.84300
C998        C  0.75004526  0.05445437  0.99745072     0.90570
O999        O  0.71643776  0.00048925  0.70039050    -0.73190
O1000       O  0.70844365  0.99966883  0.79088467    -0.74170
O1001       O  0.71088928  0.04267119  0.74564219    -0.62790
O1002       O  0.71346785  0.95840294  0.74560371    -0.71200
O1003       O  0.78752680  0.95953949  0.74960788    -0.70750
O1004       O  0.78509941  0.04385553  0.74617087    -0.62000
O1005       O  0.78219703  0.00288075  0.79307294    -0.74510
O1006       O  0.79023786  0.99949455  0.70285473    -0.73290
Cu1007     Cu  0.70973870  0.00038490  0.74552047     1.04560
Cu1008     Cu  0.78881268  0.00160709  0.74802329     1.04330
C1009       C  0.75451825  0.99909354  0.68721017     0.93010
C1010       C  0.74431788  0.00055297  0.80639357     0.92150
C1011       C  0.74757472  0.05660955  0.74564196     0.84300
C1012       C  0.75084679  0.94574746  0.74792135     0.90570
C1013       C  0.79064473  0.21986533  0.00031437     0.02890
C1014       C  0.79031418  0.19047443  0.00032308    -0.13260
C1015       C  0.74970464  0.17559004  0.99935330     0.00390
C1016       C  0.70923864  0.19035948  0.99864894    -0.11790
C1017       C  0.70925432  0.21975447  0.99916756     0.02880
C1018       C  0.75002574  0.23444208  0.99993952    -0.11210
H1019       H  0.82168310  0.17919313  0.00075998     0.08470
H1020       H  0.67776095  0.17900010  0.99778987     0.06000
H1021       H  0.75015153  0.25717849  0.00007599     0.05850
C1022       C  0.78836718  0.22216726  0.75136264     0.02890
C1023       C  0.78772898  0.19281152  0.75001323    -0.13260
C1024       C  0.74708950  0.17820807  0.74697086     0.00390
C1025       C  0.70696775  0.19328632  0.74545506    -0.11790
C1026       C  0.70727172  0.22253641  0.74810395     0.02880
C1027       C  0.74797868  0.23697058  0.75090148    -0.11210
H1028       H  0.81890703  0.18136688  0.75106585     0.08470
H1029       H  0.67541241  0.18222941  0.74300895     0.06000
H1030       H  0.74825299  0.25965214  0.75257879     0.05850
C1031       C  0.79414698  0.77891197  0.99891599     0.02890
C1032       C  0.79377479  0.80822635  0.99701535    -0.13260
C1033       C  0.75316122  0.82283801  0.99817736     0.00390
C1034       C  0.71278455  0.80777732  0.00043422    -0.11790
C1035       C  0.71284733  0.77839176  0.00150200     0.02880
C1036       C  0.75368680  0.76403277  0.00114578    -0.11210
H1037       H  0.82509823  0.81966610  0.99513100     0.08470
H1038       H  0.68128128  0.81890628  0.00114495     0.06000
H1039       H  0.75396025  0.74132953  0.00239243     0.05850
C1040       C  0.79113405  0.78015288  0.75095566     0.02890
C1041       C  0.79152574  0.80953509  0.75143466    -0.13260
C1042       C  0.75130221  0.82453418  0.74986072     0.00390
C1043       C  0.71057385  0.80975427  0.74850232    -0.11790
C1044       C  0.70995946  0.78038668  0.74936939     0.02880
C1045       C  0.75029587  0.76559697  0.75025294    -0.11210
H1046       H  0.82315741  0.82069511  0.75259630     0.08470
H1047       H  0.67931339  0.82108615  0.74721498     0.06000
H1048       H  0.74990551  0.74286241  0.75042426     0.05850
C1049       C  0.96202264  0.72007043  0.00058309     0.02890
C1050       C  0.50319940  0.73431605  0.00107110    -0.13300
C1051       C  0.54337501  0.71927155  0.00231620     0.00390
C1052       C  0.54206873  0.68984793  0.00300803    -0.11790
C1053       C  0.50092855  0.67551867  0.00219534     0.02880
C1054       C  0.96100335  0.69071785  0.00101125    -0.11210
H1055       H  0.50397034  0.75704243  0.00050145     0.08470
H1056       H  0.57299591  0.67813463  0.00394554     0.06000
H1057       H  0.92917825  0.67972399  0.00047652     0.05850
C1058       C  0.95936622  0.72177189  0.75020398     0.02890
C1059       C  0.49995601  0.73662435  0.75069806    -0.13260
C1060       C  0.54055615  0.72212672  0.75177257     0.00390
C1061       C  0.54045318  0.69278048  0.75301214    -0.11790
C1062       C  0.49999453  0.67771997  0.75177421     0.02880
C1063       C  0.95949647  0.69239549  0.75008446    -0.11210
H1064       H  0.49994547  0.75935427  0.75026926     0.08470
H1065       H  0.57191070  0.68167045  0.75439109     0.06000
H1066       H  0.92807152  0.68099364  0.74904220     0.05850
C1067       C  0.54132588  0.27902791  0.99850452     0.02890
C1068       C  0.54136119  0.30841993  0.99889656    -0.13260
C1069       C  0.50086709  0.32312591  0.99911626     0.00390
C1070       C  0.96022698  0.30829728  0.99895280    -0.11790
C1071       C  0.95989805  0.27891811  0.99864181     0.02880
C1072       C  0.50052642  0.26432922  0.99833717    -0.11210
H1073       H  0.57283403  0.31981599  0.99916980     0.08470
H1074       H  0.92887553  0.31960912  0.99924480     0.06000
H1075       H  0.50039191  0.24159433  0.99815343     0.05850
C1076       C  0.53914986  0.28072457  0.75217629     0.02890
C1077       C  0.53946682  0.31006021  0.75301130    -0.13260
C1078       C  0.49914299  0.32480950  0.75417673     0.00390
C1079       C  0.95836948  0.31013987  0.75472345    -0.11790
C1080       C  0.95782875  0.28074766  0.75374256     0.02880
C1081       C  0.49833827  0.26607450  0.75244171    -0.11210
H1082       H  0.57100966  0.32138189  0.75255658     0.08470
H1083       H  0.92714344  0.32156403  0.75549655     0.06000
H1084       H  0.49810424  0.24335433  0.75151471     0.05850
O1085       O  0.96322766  0.49727829  0.95733248    -0.73190
O1086       O  0.96010169  0.50111791  0.54712930    -0.74170
O1087       O  0.96061515  0.54117311  0.00075781    -0.62790
O1088       O  0.96213969  0.45692350  0.00392051    -0.71200
O1089       O  0.53630543  0.45780706  0.00049571    -0.70750
O1090       O  0.53470711  0.54183267  0.00483636    -0.62000
O1091       O  0.53371147  0.49763176  0.54762447    -0.74510
O1092       O  0.53651343  0.50241570  0.95801626    -0.73290
Cu1093     Cu  0.95888556  0.49904814  0.00225137     1.04560
Cu1094     Cu  0.53789140  0.49989748  0.00280582     1.04330
C1095       C  0.50024952  0.50022530  0.94319421     0.93010
C1096       C  0.49660402  0.49972564  0.56179011     0.92150
C1097       C  0.49749432  0.55469847  0.00283976     0.84300
C1098       C  0.49949251  0.44411757  0.00199802     0.90570
O1099       O  0.96334602  0.50233859  0.70762284    -0.73190
O1100       O  0.96392127  0.49869172  0.79730732    -0.74170
O1101       O  0.96329921  0.54273850  0.75398838    -0.62790
O1102       O  0.96360088  0.45850458  0.75086246    -0.71200
O1103       O  0.53773661  0.45895170  0.75439620    -0.70750
O1104       O  0.53731208  0.54307215  0.75000433    -0.62000
O1105       O  0.53720769  0.50335605  0.79700144    -0.74510
O1106       O  0.53680200  0.49851865  0.70708904    -0.73290
Cu1107     Cu  0.96096038  0.50057606  0.75245713     1.04560
Cu1108     Cu  0.53987931  0.50100433  0.75208467     1.04330
C1109       C  0.49987807  0.50014628  0.69288119     0.93010
C1110       C  0.50058391  0.50097497  0.81168054     0.92150
C1111       C  0.50028506  0.55622802  0.75197896     0.84300
C1112       C  0.50073649  0.44551787  0.75280742     0.90570
C1113       C  0.53984134  0.49329752  0.89316606    -0.02090
C1114       C  0.50098152  0.50109971  0.90957688     0.07590
C1115       C  0.96247419  0.50959502  0.89352087    -0.02200
C1116       C  0.96175878  0.50862783  0.86188404    -0.02200
C1117       C  0.50063593  0.50088581  0.84537452     0.07720
C1118       C  0.53973348  0.49329519  0.86147499    -0.02400
Br1119     Br  0.59380743  0.48110273  0.84103672    -0.00950
Br1120     Br  0.59434485  0.48184294  0.91321379    -0.01020
Br1121     Br  0.90614906  0.51848621  0.84224875    -0.00980
Br1122     Br  0.91071660  0.52502057  0.91411140    -0.00960
C1123       C  0.53619577  0.50983326  0.64231527    -0.02090
C1124       C  0.49913442  0.49969320  0.65927743     0.07590
C1125       C  0.96064934  0.48986714  0.64373465    -0.02200
C1126       C  0.95943775  0.49008960  0.61207302    -0.02200
C1127       C  0.49631179  0.50061184  0.59528996     0.07720
C1128       C  0.53373659  0.51163016  0.61081270    -0.02400
Br1129     Br  0.58052015  0.53209792  0.58964299    -0.00950
Br1130     Br  0.59166250  0.52145022  0.66108143    -0.01020
Br1131     Br  0.90639549  0.47543404  0.59247409    -0.00980
Br1132     Br  0.90944258  0.47414741  0.66495235    -0.00960
C1133       C  0.99383812  0.39964736  0.72637410    -0.02090
C1134       C  0.50086323  0.41467395  0.75317834     0.07590
C1135       C  0.50799378  0.40017884  0.78030142    -0.02200
C1136       C  0.50747669  0.37068484  0.78066550    -0.02200
C1137       C  0.49969263  0.35570738  0.75392028     0.07720
C1138       C  0.99319422  0.37018925  0.72674142    -0.02400
Br1139     Br  0.98466383  0.34959351  0.68988999    -0.00950
Br1140     Br  0.98687850  0.41941107  0.68895812    -0.01020
Br1141     Br  0.51707808  0.35067782  0.81773863    -0.00980
Br1142     Br  0.51756998  0.42074956  0.81700951    -0.00960
C1143       C  0.98695034  0.39771980  0.52687957    -0.02090
C1144       C  0.50014202  0.41319164  0.00133552     0.07590
C1145       C  0.51397401  0.39903807  0.97512067    -0.02200
C1146       C  0.51438118  0.36954684  0.97439648    -0.02200
C1147       C  0.50092991  0.35410428  0.99991369     0.07720
C1148       C  0.98728675  0.36823669  0.52618173    -0.02400
Br1149     Br  0.97039272  0.34716110  0.56154813    -0.00950
Br1150     Br  0.97034251  0.41689285  0.56330035    -0.01020
Br1151     Br  0.53191240  0.35025559  0.93810452    -0.00980
Br1152     Br  0.53058968  0.42002231  0.93975011    -0.00960
C1153       C  0.97863923  0.63164366  0.77530350    -0.02090
C1154       C  0.50010004  0.64661199  0.75191468     0.07590
C1155       C  0.52170985  0.63179694  0.72860917    -0.02200
C1156       C  0.52232104  0.60231254  0.72890256    -0.02200
C1157       C  0.50026412  0.58729899  0.75199162     0.07720
C1158       C  0.97828306  0.60212766  0.77513621    -0.02400
Br1159     Br  0.94958555  0.58218356  0.80767361    -0.00950
Br1160     Br  0.95149174  0.65143002  0.80851510    -0.01020
Br1161     Br  0.55179844  0.58270673  0.69666970    -0.00980
Br1162     Br  0.54865849  0.65171622  0.69525102    -0.00960
C1163       C  0.98491585  0.60047506  0.52856669    -0.02090
C1164       C  0.49733693  0.58552073  0.00259214     0.07590
C1165       C  0.51029248  0.60002533  0.97639578    -0.02200
C1166       C  0.51096599  0.62950086  0.97616764    -0.02200
C1167       C  0.49953989  0.64453491  0.00234016     0.07720
C1168       C  0.98624580  0.62997984  0.52850685    -0.02400
Br1169     Br  0.97077110  0.65050097  0.56440734    -0.00950
Br1170     Br  0.96711777  0.58042429  0.56436438    -0.01020
Br1171     Br  0.52581195  0.64926587  0.93964840    -0.00980
Br1172     Br  0.52618904  0.57938508  0.94064016    -0.00960
C1173       C  0.64750079  0.75578521  0.72297547    -0.02090
C1174       C  0.66681843  0.76522016  0.74995046     0.07590
C1175       C  0.64454944  0.76071542  0.77752266    -0.02200
C1176       C  0.60278632  0.74697126  0.77809118    -0.02200
C1177       C  0.58346870  0.73753729  0.75112147     0.07720
C1178       C  0.60571710  0.74205703  0.72354290    -0.02400
Br1179     Br  0.57853477  0.72977615  0.68655766    -0.00950
Br1180     Br  0.67848978  0.76165239  0.68535710    -0.01020
Br1181     Br  0.57188184  0.74098914  0.81572033    -0.00980
Br1182     Br  0.67176980  0.77293366  0.81451773    -0.00960
C1183       C  0.85256126  0.75555891  0.77793337    -0.02090
C1184       C  0.83375453  0.76472200  0.75074258     0.07590
C1185       C  0.85611684  0.75975913  0.72332638    -0.02200
C1186       C  0.89757528  0.74594550  0.72314437    -0.02200
C1187       C  0.91647294  0.73689597  0.75035169     0.07720
C1188       C  0.89402031  0.74175416  0.77775333    -0.02400
Br1189     Br  0.92057950  0.72991813  0.81504134    -0.00950
Br1190     Br  0.82138171  0.76197362  0.81533400    -0.01020
Br1191     Br  0.92862633  0.73935984  0.68572711    -0.00980
Br1192     Br  0.82947380  0.77150398  0.68603529    -0.00960
C1193       C  0.64212454  0.76369265  0.52777385    -0.02090
C1194       C  0.66996079  0.76272874  0.00212801     0.07590
C1195       C  0.65620067  0.74750869  0.97660803    -0.02200
C1196       C  0.61470241  0.73344483  0.97666529    -0.02200
C1197       C  0.58689754  0.73428627  0.00232699     0.07720
C1198       C  0.60066485  0.74949431  0.52787516    -0.02400
Br1199     Br  0.56315017  0.75044668  0.56325487    -0.00950
Br1200     Br  0.66137764  0.78388441  0.56305660    -0.01020
Br1201     Br  0.59504357  0.71415704  0.94096001    -0.00980
Br1202     Br  0.69340016  0.74679149  0.94102579    -0.00960
C1203       C  0.85989781  0.76007159  0.52654866    -0.02090
C1204       C  0.83714738  0.76387250  0.99922056     0.07590
C1205       C  0.85561478  0.75356299  0.97225655    -0.02200
C1206       C  0.89685028  0.73947260  0.97263077    -0.02200
C1207       C  0.91965517  0.73577050  0.99995801     0.07720
C1208       C  0.90121995  0.74613189  0.52690241    -0.02400
Br1209     Br  0.93222931  0.74068959  0.56435231    -0.00950
Br1210     Br  0.83387713  0.77346473  0.56356336    -0.01020
Br1211     Br  0.92239968  0.72534386  0.93577359    -0.00980
Br1212     Br  0.82430871  0.75877278  0.93490209    -0.00960
C1213       C  0.85829806  0.23645209  0.77825379    -0.02090
C1214       C  0.83153610  0.23737133  0.75228168     0.07590
C1215       C  0.84652409  0.25219953  0.72672420    -0.02200
C1216       C  0.88807424  0.26614161  0.72715917    -0.02200
C1217       C  0.91469366  0.26545800  0.75319772     0.07720
C1218       C  0.89987557  0.25046543  0.77870163    -0.02400
Br1219     Br  0.93609290  0.24962864  0.81445912    -0.00950
Br1220     Br  0.83737285  0.21663723  0.81347543    -0.01020
Br1221     Br  0.90932150  0.28526298  0.69160453    -0.00980
Br1222     Br  0.81081944  0.25263598  0.69067806    -0.00960
C1223       C  0.60046348  0.25481105  0.77758708    -0.02090
C1224       C  0.58183675  0.26547324  0.75097541     0.07590
C1225       C  0.60468936  0.26247359  0.72341856    -0.02200
C1226       C  0.64607571  0.24860043  0.72245666    -0.02200
C1227       C  0.66461826  0.23785834  0.74906538     0.07720
C1228       C  0.64200586  0.24118267  0.77666412    -0.02400
Br1229     Br  0.66849774  0.22758165  0.81327404    -0.00950
Br1230     Br  0.56928547  0.25929350  0.81532805    -0.01020
Br1231     Br  0.67751264  0.24430851  0.68481715    -0.00980
Br1232     Br  0.57893658  0.27718398  0.68704962    -0.00960
C1233       C  0.86116893  0.23528326  0.52573040    -0.02090
C1234       C  0.83371508  0.23529226  0.00005709     0.07590
C1235       C  0.84783798  0.24950864  0.97386722    -0.02200
C1236       C  0.88933219  0.26359603  0.97333623    -0.02200
C1237       C  0.91681378  0.26353647  0.99898568     0.07720
C1238       C  0.90269749  0.24934553  0.52518035    -0.02400
Br1239     Br  0.93970722  0.24987290  0.56061453    -0.00950
Br1240     Br  0.84116690  0.21676520  0.56198611    -0.01020
Br1241     Br  0.90923499  0.28228208  0.93714450    -0.00980
Br1242     Br  0.81094433  0.24897769  0.93837115    -0.00960
C1243       C  0.65113000  0.24859285  0.52516874    -0.02090
C1244       C  0.66643183  0.23512129  0.99890295     0.07590
C1245       C  0.64059001  0.23601883  0.97250562    -0.02200
C1246       C  0.59945194  0.25023521  0.97241387    -0.02200
C1247       C  0.58415990  0.26369335  0.99868198     0.07720
C1248       C  0.61002045  0.26282504  0.52506579    -0.02400
Br1249     Br  0.58838135  0.28044815  0.56133507    -0.00950
Br1250     Br  0.68596636  0.24691584  0.56153264    -0.01020
Br1251     Br  0.56451781  0.25190237  0.93609822    -0.00980
Br1252     Br  0.66230481  0.21850394  0.93620744    -0.00960
C1253       C  0.76998298  0.10307644  0.72312455    -0.02090
C1254       C  0.74658602  0.08775875  0.74539257     0.07590
C1255       C  0.72255421  0.10241534  0.76770003    -0.02200
C1256       C  0.72334169  0.13187929  0.76852494    -0.02200
C1257       C  0.74647797  0.14712606  0.74611929     0.07720
C1258       C  0.76931262  0.13260158  0.72314817    -0.02400
Br1259     Br  0.79809664  0.15306897  0.69084897    -0.00950
Br1260     Br  0.80122056  0.08384533  0.69153859    -0.01020
Br1261     Br  0.69482904  0.15112846  0.80162285    -0.00980
Br1262     Br  0.68972876  0.08242024  0.79812155    -0.00960
C1263       C  0.77422995  0.89989107  0.72600836    -0.02090
C1264       C  0.75158674  0.91486116  0.74866531     0.07590
C1265       C  0.72931958  0.90028754  0.77191204    -0.02200
C1266       C  0.72996029  0.87079899  0.77265493    -0.02200
C1267       C  0.75177256  0.85567105  0.74959576     0.07720
C1268       C  0.77377079  0.87038527  0.72618394    -0.02400
Br1269     Br  0.80134283  0.85035714  0.69331998    -0.00950
Br1270     Br  0.80423882  0.91986502  0.69390117    -0.01020
Br1271     Br  0.70263556  0.85137713  0.80616832    -0.00980
Br1272     Br  0.69934399  0.92082006  0.80346700    -0.00960
C1273       C  0.77629775  0.98343643  0.85539476    -0.02090
C1274       C  0.74269644  0.99845029  0.83993300     0.07590
C1275       C  0.70833788  0.01139081  0.85693072    -0.02200
C1276       C  0.71152695  0.01313509  0.88846182    -0.02200
C1277       C  0.74590112  0.99891251  0.90384238     0.07720
C1278       C  0.77732499  0.98320887  0.88708240    -0.02400
Br1279     Br  0.82033981  0.95965741  0.90722407    -0.00950
Br1280     Br  0.81849441  0.96039317  0.83355059    -0.01020
Br1281     Br  0.67014192  0.03696731  0.91001594    -0.00980
Br1282     Br  0.65485188  0.02535839  0.83818105    -0.00960
C1283       C  0.79165724  0.01004010  0.63701928    -0.02090
C1284       C  0.75679895  0.99690900  0.65367426     0.07590
C1285       C  0.72343343  0.98176188  0.63786028    -0.02200
C1286       C  0.72306620  0.98159486  0.60615939    -0.02200
C1287       C  0.75507996  0.99736445  0.58969154     0.07720
C1288       C  0.78941056  0.01157290  0.60542500    -0.02400
Br1289     Br  0.83213625  0.03512362  0.58428117    -0.00950
Br1290     Br  0.84425115  0.02511761  0.65641593    -0.01020
Br1291     Br  0.67995841  0.95807651  0.58562331    -0.00980
Br1292     Br  0.68036317  0.95863370  0.65922248    -0.00960
C1293       C  0.76800176  0.13008928  0.97403357    -0.02090
C1294       C  0.74961717  0.14452218  0.99883409     0.07590
C1295       C  0.73130609  0.12924650  0.52316448    -0.02200
C1296       C  0.73106892  0.09973806  0.52256836    -0.02200
C1297       C  0.74978802  0.08537205  0.99790219     0.07720
C1298       C  0.76842939  0.10058742  0.97370980    -0.02400
Br1299     Br  0.79295895  0.08095531  0.93951289    -0.00950
Br1300     Br  0.79098493  0.15067064  0.93986132    -0.01020
Br1301     Br  0.70687734  0.07894123  0.55619754    -0.00980
Br1302     Br  0.70827880  0.14868702  0.55796470    -0.00960
C1303       C  0.73227042  0.86823936  0.97350405    -0.02090
C1304       C  0.75291859  0.85391768  0.99746212     0.07590
C1305       C  0.77304277  0.86934624  0.52092925    -0.02200
C1306       C  0.77298330  0.89882010  0.52024647    -0.02200
C1307       C  0.75189571  0.91304165  0.99652139     0.07720
C1308       C  0.73134427  0.89774432  0.97323541    -0.02400
Br1309     Br  0.70343752  0.91729412  0.94034367    -0.00950
Br1310     Br  0.70683615  0.84756973  0.94034103    -0.01020
Br1311     Br  0.80016427  0.91978883  0.55258113    -0.00980
Br1312     Br  0.79881737  0.85029494  0.55492358    -0.00960
loop_ 
_geom_bond_atom_site_label_1 
_geom_bond_atom_site_label_2 
_geom_bond_distance 
_geom_bond_site_symmetry_2 
_ccdc_geom_bond_type 
O1           C11   1.278       .  A
O1         Cu337   2.011   1_554  S
O2           C12   1.278       .  A
O2           Cu9   2.010       .  S
O3          C341   1.277       .  A
O3           Cu9   2.008       .  S
O4          C342   1.277       .  A
O4         Cu337   2.010   1_545  S
O5          C342   1.277       .  A
O5          Cu10   2.009   1_545  S
O6          C341   1.277       .  A
O6         Cu338   2.005       .  S
O7           C12   1.278   1_545  A
O7         Cu338   2.013   1_545  S
O8           C11   1.278       .  A
O8          Cu10   2.012   1_554  S
Cu9         O329   2.011       .  S
Cu9         O332   2.010   1_565  S
Cu9        Cu338   2.369       .  S
Cu10        O334   2.005       .  S
Cu10        O335   2.013   1_565  S
Cu10       Cu337   2.369       .  S
C11         C303   1.492       .  S
C12         C293   1.490       .  S
C13         O331   1.277       .  A
C13         O334   1.277       .  A
C13         C651   1.473       .  S
C14         O332   1.277       .  A
C14         O333   1.277       .  A
C14         C313   1.475       .  S
O15          C25   1.279   1_545  A
O15         Cu23   2.018       .  S
O16          C26   1.278   1_565  A
O16         Cu23   2.020   1_565  S
O17          C27   1.278       .  A
O17         Cu23   2.018       .  S
O18          C28   1.277       .  A
O18         Cu23   2.007   1_565  S
O19          C28   1.277       .  A
O19         Cu24   2.008   1_565  S
O20          C27   1.279       .  A
O20         Cu24   2.021       .  S
O21          C26   1.279       .  A
O21         Cu24   2.015       .  S
O22          C25   1.277       .  A
O22         Cu24   2.014   1_565  S
Cu23        Cu24   2.365       .  S
C25         C300   1.498       .  S
C26         C290   1.497   1_545  S
C27         C270   1.487       .  S
C28         C280   1.474       .  S
C29         C250   1.478       .  S
C29          C30   1.402       .  A
C29          C34   1.402       .  A
C30          C31   1.403       .  A
C30          H35   1.084       .  S
C31         C310   1.482       .  S
C31          C32   1.403       .  A
C32          C33   1.403       .  A
C32          H36   1.083       .  S
C33         C260   1.478       .  S
C33          C34   1.402       .  A
C34          H37   1.085       .  S
C38         C230   1.476       .  S
C38          C39   1.402       .  A
C38          C43   1.402       .  A
C39          C40   1.403       .  A
C39          H44   1.083       .  S
C40         C273   1.483       .  S
C40          C41   1.403       .  A
C41          C42   1.400       .  A
C41          H45   1.083       .  S
C42         C243   1.473       .  S
C42          C43   1.400       .  A
C43          H46   1.085       .  S
C47         C220   1.475       .  S
C47          C48   1.401       .  A
C47          C52   1.401       .  A
C48          C49   1.403       .  A
C48          H53   1.083       .  S
C49         C320   1.483       .  S
C49          C50   1.403       .  A
C50          C51   1.403       .  A
C50          H54   1.083       .  S
C51         C210   1.479       .  S
C51          C52   1.403       .  A
C52          H55   1.085       .  S
C56         C200   1.474       .  S
C56          C57   1.402       .  A
C56          C61   1.400       .  A
C57          C58   1.404       .  A
C57          H62   1.083       .  S
C58         C283   1.486       .  S
C58          C59   1.404       .  A
C59          C60   1.402       .  A
C59          H63   1.083       .  S
C60         C190   1.474       .  S
C60          C61   1.400       .  A
C61          H64   1.085       .  S
C65         C223   1.475       .  S
C65          C70   1.401       .  A
C65         C722   1.402       .  A
C66          C67   1.403       .  A
C66         C721   1.402   1_455  A
C66          H71   1.085       .  S
C67         C213   1.481       .  S
C67          C68   1.404       .  A
C68          C69   1.403       .  A
C68          H72   1.083       .  S
C69         C183   1.479   1_455  S
C69         C726   1.401   1_455  A
C70         C725   1.401       .  A
C70          H73   1.083       .  S
C74         C203   1.474       .  S
C74          C79   1.402       .  A
C74         C731   1.401       .  A
C75          C76   1.401   1_655  A
C75         C730   1.401       .  A
C75          H80   1.085       .  S
C76         C193   1.474       .  S
C76          C77   1.401       .  A
C77          C78   1.404   1_455  A
C77          H81   1.083       .  S
C78         C170   1.484   1_655  S
C78         C735   1.404       .  A
C79         C734   1.404       .  A
C79          H82   1.083       .  S
C83         C263   1.478       .  S
C83          C84   1.402       .  A
C83          C88   1.402       .  A
C84          C85   1.402       .  A
C84          H89   1.083       .  S
C85         C163   1.478       .  S
C85         C742   1.401   1_455  A
C86          C87   1.402       .  A
C86         C741   1.401       .  A
C86          H90   1.084       .  S
C87         C253   1.478       .  S
C87         C744   1.402       .  A
C88         C743   1.402   1_455  A
C88          H91   1.085       .  S
C92         C240   1.472       .  S
C92          C93   1.400       .  A
C92          C97   1.402   1_455  A
C93          C94   1.399   1_455  A
C93          H98   1.083       .  S
C94         C153   1.474       .  S
C94         C751   1.401       .  A
C95          C96   1.403       .  A
C95         C750   1.401       .  A
C95          H99   1.083       .  S
C96         C233   1.477       .  S
C96         C753   1.402       .  A
C97         C752   1.402       .  A
C97         H100   1.085       .  S
O101        C767   1.277       .  A
O101       Cu109   2.005       .  S
O102        C768   1.275       .  A
O102       Cu437   2.001       .  S
O103        C769   1.277       .  A
O103       Cu109   2.011       .  S
O104        C770   1.278       .  A
O104       Cu109   2.014       .  S
O105        C114   1.277   1_455  A
O105       Cu110   2.011       .  S
O106        C113   1.276   1_455  A
O106       Cu110   2.006       .  S
O107        C112   1.277   1_455  A
O107       Cu438   2.002       .  S
O108        C111   1.275       .  A
O108       Cu110   1.998       .  S
Cu109       O430   2.001       .  S
Cu109      Cu766   2.360       .  S
Cu110       O435   2.002       .  S
Cu110      Cu765   2.360   1_455  S
C111        O757   1.277   1_455  A
C111        C130   1.497       .  S
C112        O758   1.275       .  A
C112        C143   1.492       .  S
C113        O759   1.277       .  A
C113        C180   1.471       .  S
C114        O760   1.278       .  A
C114        C160   1.476   1_655  S
O115        C781   1.275       .  A
O115       Cu123   1.999       .  S
O116        C782   1.275       .  A
O116       Cu123   2.001       .  S
O117        C783   1.278       .  A
O117       Cu123   2.013       .  S
O118        C784   1.277       .  A
O118       Cu123   2.010       .  S
O119        C128   1.276       .  A
O119       Cu124   2.010       .  S
O120        C127   1.277       .  A
O120       Cu124   2.011       .  S
O121        C126   1.276       .  A
O121       Cu124   2.004       .  S
O122        C125   1.277   1_455  A
O122       Cu124   2.009       .  S
Cu123      Cu780   2.357       .  S
Cu124      Cu779   2.357   1_455  S
C125        O771   1.275       .  A
C125        C140   1.497       .  S
C126        O772   1.275   1_455  A
C126        C133   1.500       .  S
C127        O773   1.278   1_455  A
C127        C173   1.482       .  S
C128        O774   1.277   1_455  A
C128        C150   1.472       .  S
C129        C130   1.420       .  A
C129        C134   1.411       .  A
C129       Br136   1.942       .  S
C130        C787   1.418   1_455  A
C131        C132   1.410       .  A
C131        C786   1.418       .  A
C131       Br138   1.942       .  S
C132        C789   1.422       .  A
C132       Br137   1.941       .  S
C133        C134   1.422       .  A
C133        C788   1.422   1_455  A
C134       Br135   1.942       .  S
C139        C140   1.420   1_455  A
C139        C144   1.407       .  A
C139       Br146   1.937       .  S
C140        C797   1.422       .  A
C141        C142   1.410       .  A
C141        C796   1.422       .  A
C141       Br148   1.941       .  S
C142        C799   1.417       .  A
C142       Br147   1.939       .  S
C143        C144   1.416   1_655  A
C143        C798   1.417       .  A
C144       Br145   1.940       .  S
C149        C154   1.406       .  A
C149        C806   1.408       .  A
C149       Br156   1.927       .  S
C150        C151   1.409       .  A
C150        C805   1.408   1_455  A
C151        C152   1.407       .  A
C151       Br158   1.928       .  S
C152        C153   1.408   1_455  A
C152       Br157   1.930       .  S
C153        C810   1.408       .  A
C154        C809   1.408       .  A
C154       Br155   1.930       .  S
C159        C164   1.407       .  A
C159       C1144   1.409       .  A
C159       Br166   1.926       .  S
C160        C161   1.410       .  A
C160       C1143   1.409   1_455  A
C161        C162   1.407       .  A
C161       Br168   1.927       .  S
C162        C163   1.410       .  A
C162       Br167   1.931       .  S
C163       C1148   1.410   1_455  A
C164       C1147   1.410   1_554  A
C164       Br165   1.932       .  S
C169        C174   1.408       .  A
C169        C826   1.412       .  A
C169       Br176   1.932       .  S
C170        C171   1.411       .  A
C170        C825   1.412   1_455  A
C171        C172   1.407       .  A
C171       Br178   1.933       .  S
C172        C173   1.411       .  A
C172       Br177   1.925       .  S
C173        C830   1.412   1_455  A
C174        C829   1.412       .  A
C174       Br175   1.928       .  S
C179        C184   1.408       .  A
C179       C1164   1.408       .  A
C179       Br186   1.930       .  S
C180        C181   1.408   1_655  A
C180       C1163   1.408       .  A
C181        C182   1.406       .  A
C181       Br188   1.931       .  S
C182        C183   1.410   1_455  A
C182       Br187   1.928       .  S
C183       C1168   1.410       .  A
C184       C1167   1.410       .  A
C184       Br185   1.930       .  S
C189        C190   1.408       .  A
C189        C194   1.406       .  A
C189       Br196   1.929       .  S
C190        C191   1.409       .  A
C191        C192   1.406       .  A
C191       Br198   1.929       .  S
C192        C193   1.407       .  A
C192       Br197   1.929       .  S
C193        C194   1.409       .  A
C194       Br195   1.929       .  S
C199        C200   1.408       .  A
C199        C204   1.406       .  A
C199       Br206   1.929       .  S
C200        C201   1.409       .  A
C201        C202   1.406       .  A
C201       Br208   1.929       .  S
C202        C203   1.408       .  A
C202       Br207   1.929       .  S
C203        C204   1.409       .  A
C204       Br205   1.929       .  S
C209        C214   1.408       .  A
C209        C538   1.410       .  A
C209       Br216   1.931       .  S
C210        C211   1.410       .  A
C210        C537   1.410       .  A
C211        C212   1.406       .  A
C211       Br218   1.931       .  S
C212        C213   1.410       .  A
C212       Br217   1.929       .  S
C213        C542   1.411       .  A
C214        C541   1.411       .  A
C214       Br215   1.929       .  S
C219        C224   1.406       .  A
C219        C548   1.409   1_554  A
C219       Br226   1.929       .  S
C220        C221   1.409       .  A
C220        C547   1.409       .  A
C221        C222   1.407       .  A
C221       Br228   1.929       .  S
C222        C223   1.409       .  A
C222       Br227   1.930       .  S
C223        C552   1.408       .  A
C224        C551   1.408   1_554  A
C224       Br225   1.930       .  S
C229        C230   1.410       .  A
C229        C234   1.407       .  A
C229       Br236   1.930       .  S
C230        C231   1.410       .  A
C231        C232   1.405       .  A
C231       Br238   1.931       .  S
C232        C233   1.409       .  A
C232       Br237   1.930       .  S
C233        C234   1.410       .  A
C234       Br235   1.930       .  S
C239        C240   1.408       .  A
C239        C244   1.405       .  A
C239       Br246   1.930       .  S
C240        C241   1.409       .  A
C241        C242   1.406       .  A
C241       Br248   1.930       .  S
C242        C243   1.408       .  A
C242       Br247   1.928       .  S
C243        C244   1.409       .  A
C244       Br245   1.929       .  S
C249        C254   1.407       .  A
C249        C578   1.410       .  A
C249       Br256   1.931       .  S
C250        C251   1.410       .  A
C250        C577   1.410       .  A
C251        C252   1.406       .  A
C251       Br258   1.931       .  S
C252        C253   1.410       .  A
C252       Br257   1.931       .  S
C253        C582   1.410       .  A
C254        C581   1.410   1_554  A
C254       Br255   1.931       .  S
C259        C264   1.407       .  A
C259        C588   1.410   1_554  A
C259       Br266   1.931       .  S
C260        C261   1.410       .  A
C260        C587   1.410       .  A
C261        C262   1.407       .  A
C261       Br268   1.931       .  S
C262        C263   1.410       .  A
C262       Br267   1.930       .  S
C263        C592   1.410       .  A
C264        C591   1.410   1_554  A
C264       Br265   1.931       .  S
C269        C270   1.412       .  A
C269        C274   1.409       .  A
C269       Br276   1.920       .  S
C270        C271   1.411       .  A
C271        C272   1.406       .  A
C271       Br278   1.919       .  S
C272        C273   1.410       .  A
C272       Br277   1.933       .  S
C273        C274   1.411       .  A
C274       Br275   1.934       .  S
C279        C280   1.409       .  A
C279        C284   1.408       .  A
C279       Br286   1.932       .  S
C280        C281   1.409       .  A
C281        C282   1.407       .  A
C281       Br288   1.932       .  S
C282        C283   1.414       .  A
C282       Br287   1.931       .  S
C283        C284   1.414       .  A
C284       Br285   1.931       .  S
C289        C290   1.417       .  A
C289        C294   1.411       .  A
C289       Br296   1.936       .  S
C290        C291   1.417   1_565  A
C291        C292   1.410       .  A
C291       Br298   1.928       .  S
C292        C293   1.414   1_545  A
C292       Br297   1.936       .  S
C293        C294   1.414       .  A
C294       Br295   1.935       .  S
C299        C300   1.418   1_545  A
C299        C304   1.410       .  A
C299       Br306   1.931       .  S
C300        C301   1.418       .  A
C301        C302   1.412       .  A
C301       Br308   1.936       .  S
C302        C303   1.415       .  A
C302       Br307   1.936       .  S
C303        C304   1.414   1_565  A
C304       Br305   1.936       .  S
C309        C310   1.412       .  A
C309        C314   1.408       .  A
C309       Br316   1.932       .  S
C310        C639   1.412       .  A
C311        C312   1.408       .  A
C311        C638   1.412   1_554  A
C311       Br318   1.932       .  S
C312        C641   1.410   1_554  A
C312       Br317   1.931       .  S
C313        C314   1.409       .  A
C313        C640   1.410       .  A
C314       Br315   1.931       .  S
C319        C320   1.413       .  A
C319        C324   1.408       .  A
C319       Br326   1.932       .  S
C320        C649   1.413       .  A
C321        C322   1.406       .  A
C321        C648   1.413   1_554  A
C321       Br328   1.931       .  S
C322        C651   1.409   1_554  A
C322       Br327   1.932       .  S
C323        C341   1.473       .  S
C323        C324   1.409       .  A
C323        C650   1.409       .  A
C324       Br325   1.931       .  S
O329        C339   1.278       .  A
O330        C340   1.278       .  A
O330       Cu337   2.010       .  S
O331       Cu337   2.008       .  S
O333       Cu338   2.009   1_545  S
O335        C340   1.278   1_545  A
O336        C339   1.278       .  A
O336       Cu338   2.012       .  S
C339        C631   1.492       .  S
C340        C621   1.490       .  S
C342        C641   1.475       .  S
O343        C353   1.279   1_545  A
O343       Cu351   2.018       .  S
O344        C354   1.278   1_565  A
O344       Cu351   2.020   1_565  S
O345        C355   1.278       .  A
O345       Cu351   2.018       .  S
O346        C356   1.277       .  A
O346       Cu351   2.007   1_565  S
O347        C356   1.277       .  A
O347       Cu352   2.008   1_565  S
O348        C355   1.279       .  A
O348       Cu352   2.021       .  S
O349        C354   1.279       .  A
O349       Cu352   2.015       .  S
O350        C353   1.277       .  A
O350       Cu352   2.014   1_565  S
Cu351      Cu352   2.365       .  S
C353        C628   1.498       .  S
C354        C618   1.497   1_545  S
C355        C598   1.487       .  S
C356        C608   1.474       .  S
C357        C578   1.478       .  S
C357        C358   1.402       .  A
C357        C362   1.402   1_554  A
C358        C359   1.403   1_554  A
C358        H363   1.084       .  S
C359        C638   1.482       .  S
C359        C360   1.403       .  A
C360        C361   1.403       .  A
C360        H364   1.083       .  S
C361        C588   1.478       .  S
C361        C362   1.402       .  A
C362        H365   1.085   1_556  S
C366        C558   1.476       .  S
C366        C367   1.402       .  A
C366        C371   1.402       .  A
C367        C368   1.403       .  A
C367        H372   1.083       .  S
C368        C601   1.483       .  S
C368        C369   1.403       .  A
C369        C370   1.400       .  A
C369        H373   1.083       .  S
C370        C571   1.473       .  S
C370        C371   1.400       .  A
C371        H374   1.085       .  S
C375        C548   1.475       .  S
C375        C376   1.401       .  A
C375        C380   1.401   1_556  A
C376        C377   1.403       .  A
C376        H381   1.083       .  S
C377        C648   1.483       .  S
C377        C378   1.403   1_556  A
C378        C379   1.403       .  A
C378        H382   1.083       .  S
C379        C538   1.479       .  S
C379        C380   1.403       .  A
C380        H383   1.085       .  S
C384        C528   1.474       .  S
C384        C385   1.402       .  A
C384        C389   1.400       .  A
C385        C386   1.404       .  A
C385        H390   1.083       .  S
C386        C611   1.486       .  S
C386        C387   1.404       .  A
C387        C388   1.402       .  A
C387        H391   1.083       .  S
C388        C518   1.474       .  S
C388        C389   1.400       .  A
C389        H392   1.085       .  S
C393        C551   1.475   1_554  S
C393       C1050   1.402       .  A
C393        C398   1.401       .  A
C394       C1049   1.402   1_455  A
C394        C395   1.403       .  A
C394        H399   1.085       .  S
C395        C541   1.481       .  S
C395        C396   1.404       .  A
C396        C397   1.403       .  A
C396        H400   1.083       .  S
C397        C511   1.479   1_455  S
C397       C1054   1.401   1_455  A
C398       C1053   1.401       .  A
C398        H401   1.083       .  S
C402        C531   1.474       .  S
C402       C1059   1.401       .  A
C402        C407   1.402       .  A
C403       C1058   1.401       .  A
C403        C404   1.401   1_655  A
C403        H408   1.085       .  S
C404        C521   1.474       .  S
C404        C405   1.401       .  A
C405        C406   1.404   1_455  A
C405        H409   1.083       .  S
C406        C498   1.484   1_655  S
C406       C1063   1.404       .  A
C407       C1062   1.404       .  A
C407        H410   1.083       .  S
C411        C591   1.478       .  S
C411        C412   1.402       .  A
C411        C416   1.402       .  A
C412        C413   1.402       .  A
C412        H417   1.083       .  S
C413        C491   1.478       .  S
C413       C1070   1.401   1_455  A
C414       C1069   1.401       .  A
C414        C415   1.402       .  A
C414        H418   1.084       .  S
C415        C581   1.478       .  S
C415       C1072   1.402       .  A
C416       C1071   1.402   1_455  A
C416        H419   1.085       .  S
C420        C568   1.472       .  S
C420        C421   1.400       .  A
C420        C425   1.402   1_455  A
C421        C422   1.399   1_455  A
C421        H426   1.083       .  S
C422        C481   1.474       .  S
C422       C1079   1.401       .  A
C423       C1078   1.401       .  A
C423        C424   1.403       .  A
C423        H427   1.083       .  S
C424        C561   1.477       .  S
C424       C1081   1.402       .  A
C425       C1080   1.402       .  A
C425        H428   1.085       .  S
O429       C1095   1.277       .  A
O429       Cu437   2.005   1_556  S
O430       C1096   1.275       .  A
O431       C1097   1.277       .  A
O431       Cu437   2.011       .  S
O432       C1098   1.278       .  A
O432       Cu437   2.014       .  S
O433        C442   1.277   1_455  A
O433       Cu438   2.011       .  S
O434        C441   1.276   1_455  A
O434       Cu438   2.006       .  S
O435        C440   1.277   1_455  A
O436        C439   1.275       .  A
O436       Cu438   1.998   1_556  S
Cu437     Cu1094   2.360       .  S
Cu438     Cu1093   2.360   1_455  S
C439       O1085   1.277   1_455  A
C439        C458   1.497       .  S
C440       O1086   1.275       .  A
C440        C471   1.492       .  S
C441       O1087   1.277       .  A
C441        C508   1.471       .  S
C442       O1088   1.278       .  A
C442        C488   1.476   1_655  S
O443       C1109   1.275       .  A
O443       Cu451   1.999       .  S
O444       C1110   1.275       .  A
O444       Cu451   2.001       .  S
O445       C1111   1.278       .  A
O445       Cu451   2.013       .  S
O446       C1112   1.277       .  A
O446       Cu451   2.010       .  S
O447        C456   1.276       .  A
O447       Cu452   2.010       .  S
O448        C455   1.277       .  A
O448       Cu452   2.011       .  S
O449        C454   1.276       .  A
O449       Cu452   2.004       .  S
O450        C453   1.277   1_455  A
O450       Cu452   2.009       .  S
Cu451     Cu1108   2.357       .  S
Cu452     Cu1107   2.357   1_455  S
C453       O1099   1.275       .  A
C453        C468   1.497       .  S
C454       O1100   1.275   1_455  A
C454        C461   1.500       .  S
C455       O1101   1.278   1_455  A
C455        C501   1.482       .  S
C456       O1102   1.277   1_455  A
C456        C478   1.472       .  S
C457        C458   1.420       .  A
C457        C462   1.411       .  A
C457       Br464   1.942       .  S
C458       C1115   1.418   1_455  A
C459       C1114   1.418       .  A
C459        C460   1.410       .  A
C459       Br466   1.942       .  S
C460       C1117   1.422       .  A
C460       Br465   1.941       .  S
C461       C1116   1.422   1_455  A
C461        C462   1.422       .  A
C462       Br463   1.942       .  S
C467        C468   1.420   1_455  A
C467        C472   1.407       .  A
C467       Br474   1.937       .  S
C468       C1125   1.422       .  A
C469       C1124   1.422       .  A
C469        C470   1.410       .  A
C469       Br476   1.941       .  S
C470       C1127   1.417       .  A
C470       Br475   1.939       .  S
C471       C1126   1.417       .  A
C471        C472   1.416   1_655  A
C472       Br473   1.940       .  S
C477       C1134   1.408       .  A
C477        C482   1.406       .  A
C477       Br484   1.927       .  S
C478       C1133   1.408   1_455  A
C478        C479   1.409       .  A
C479        C480   1.407       .  A
C479       Br486   1.928       .  S
C480        C481   1.408   1_455  A
C480       Br485   1.930       .  S
C481       C1138   1.408       .  A
C482       C1137   1.408       .  A
C482       Br483   1.930       .  S
C487        C816   1.409       .  A
C487        C492   1.407       .  A
C487       Br494   1.926       .  S
C488        C815   1.409   1_455  A
C488        C489   1.410   1_554  A
C489        C490   1.407       .  A
C489       Br496   1.927       .  S
C490        C491   1.410       .  A
C490       Br495   1.931       .  S
C491        C820   1.410   1_456  A
C492        C819   1.410       .  A
C492       Br493   1.932       .  S
C497       C1154   1.412       .  A
C497        C502   1.408       .  A
C497       Br504   1.932       .  S
C498       C1153   1.412   1_455  A
C498        C499   1.411       .  A
C499        C500   1.407       .  A
C499       Br506   1.933       .  S
C500        C501   1.411       .  A
C500       Br505   1.925       .  S
C501       C1158   1.412   1_455  A
C502       C1157   1.412       .  A
C502       Br503   1.928       .  S
C507        C836   1.408       .  A
C507        C512   1.408       .  A
C507       Br514   1.930       .  S
C508        C835   1.408       .  A
C508        C509   1.408   1_654  A
C509        C510   1.406       .  A
C509       Br516   1.931       .  S
C510        C511   1.410   1_456  A
C510       Br515   1.928       .  S
C511        C840   1.410       .  A
C512        C839   1.410       .  A
C512       Br513   1.930       .  S
C517        C518   1.408       .  A
C517        C522   1.406       .  A
C517       Br524   1.929       .  S
C518        C519   1.409       .  A
C519        C520   1.406       .  A
C519       Br526   1.929       .  S
C520        C521   1.407       .  A
C520       Br525   1.929       .  S
C521        C522   1.409       .  A
C522       Br523   1.929       .  S
C527        C528   1.408       .  A
C527        C532   1.406       .  A
C527       Br534   1.929       .  S
C528        C529   1.409       .  A
C529        C530   1.406       .  A
C529       Br536   1.929       .  S
C530        C531   1.408       .  A
C530       Br535   1.929       .  S
C531        C532   1.409       .  A
C532       Br533   1.929       .  S
C537        C542   1.408       .  A
C537       Br544   1.931       .  S
C538        C539   1.410   1_554  A
C539        C540   1.406       .  A
C539       Br546   1.931       .  S
C540        C541   1.410   1_556  A
C540       Br545   1.929       .  S
C542       Br543   1.929       .  S
C547        C552   1.406       .  A
C547       Br554   1.929       .  S
C548        C549   1.409       .  A
C549        C550   1.407       .  A
C549       Br556   1.929       .  S
C550        C551   1.409       .  A
C550       Br555   1.930       .  S
C552       Br553   1.930       .  S
C557        C558   1.410       .  A
C557        C562   1.407       .  A
C557       Br564   1.930       .  S
C558        C559   1.410       .  A
C559        C560   1.405       .  A
C559       Br566   1.931       .  S
C560        C561   1.409       .  A
C560       Br565   1.930       .  S
C561        C562   1.410       .  A
C562       Br563   1.930       .  S
C567        C568   1.408       .  A
C567        C572   1.405       .  A
C567       Br574   1.930       .  S
C568        C569   1.409       .  A
C569        C570   1.406       .  A
C569       Br576   1.930       .  S
C570        C571   1.408       .  A
C570       Br575   1.928       .  S
C571        C572   1.409       .  A
C572       Br573   1.929       .  S
C577        C582   1.407       .  A
C577       Br584   1.931       .  S
C578        C579   1.410   1_554  A
C579        C580   1.406       .  A
C579       Br586   1.931       .  S
C580        C581   1.410       .  A
C580       Br585   1.931       .  S
C582       Br583   1.931       .  S
C587        C592   1.407       .  A
C587       Br594   1.931       .  S
C588        C589   1.410       .  A
C589        C590   1.407       .  A
C589       Br596   1.931       .  S
C590        C591   1.410       .  A
C590       Br595   1.930       .  S
C592       Br593   1.931       .  S
C597        C598   1.412       .  A
C597        C602   1.409       .  A
C597       Br604   1.920       .  S
C598        C599   1.411       .  A
C599        C600   1.406       .  A
C599       Br606   1.919       .  S
C600        C601   1.410       .  A
C600       Br605   1.933       .  S
C601        C602   1.411       .  A
C602       Br603   1.934       .  S
C607        C608   1.409       .  A
C607        C612   1.408       .  A
C607       Br614   1.932       .  S
C608        C609   1.409       .  A
C609        C610   1.407       .  A
C609       Br616   1.932       .  S
C610        C611   1.414       .  A
C610       Br615   1.931       .  S
C611        C612   1.414       .  A
C612       Br613   1.931       .  S
C617        C618   1.417       .  A
C617        C622   1.411       .  A
C617       Br624   1.936       .  S
C618        C619   1.417   1_565  A
C619        C620   1.410       .  A
C619       Br626   1.928       .  S
C620        C621   1.414   1_545  A
C620       Br625   1.936       .  S
C621        C622   1.414       .  A
C622       Br623   1.935       .  S
C627        C628   1.418   1_545  A
C627        C632   1.410       .  A
C627       Br634   1.931       .  S
C628        C629   1.418       .  A
C629        C630   1.412       .  A
C629       Br636   1.936       .  S
C630        C631   1.415       .  A
C630       Br635   1.936       .  S
C631        C632   1.414   1_565  A
C632       Br633   1.936       .  S
C637        C638   1.412       .  A
C637        C642   1.408       .  A
C637       Br644   1.932       .  S
C639        C640   1.408       .  A
C639       Br646   1.932       .  S
C640       Br645   1.931       .  S
C641        C642   1.409       .  A
C642       Br643   1.931       .  S
C647        C648   1.413       .  A
C647        C652   1.408       .  A
C647       Br654   1.932       .  S
C649        C650   1.406       .  A
C649       Br656   1.931       .  S
C650       Br655   1.932       .  S
C651        C652   1.409       .  A
C652       Br653   1.931       .  S
O657        C667   1.278       .  A
O657       Cu993   2.011   1_554  S
O658        C668   1.278       .  A
O658       Cu665   2.010       .  S
O659        C997   1.277       .  A
O659       Cu665   2.008       .  S
O660        C998   1.277       .  A
O660       Cu993   2.010   1_545  S
O661        C998   1.277       .  A
O661       Cu666   2.009   1_545  S
O662        C997   1.277       .  A
O662       Cu994   2.005       .  S
O663        C668   1.278   1_545  A
O663       Cu994   2.013   1_545  S
O664        C667   1.278       .  A
O664       Cu666   2.012   1_554  S
Cu665       O985   2.011       .  S
Cu665       O988   2.010   1_565  S
Cu665      Cu994   2.369       .  S
Cu666       O990   2.005       .  S
Cu666       O991   2.013   1_565  S
Cu666      Cu993   2.369       .  S
C667        C959   1.492       .  S
C668        C949   1.490       .  S
C669        O987   1.277       .  A
C669        O990   1.277       .  A
C669       C1307   1.473       .  S
C670        O988   1.277       .  A
C670        O989   1.277       .  A
C670        C969   1.475       .  S
O671        C681   1.279   1_545  A
O671       Cu679   2.018       .  S
O672        C682   1.278   1_565  A
O672       Cu679   2.020   1_565  S
O673        C683   1.278       .  A
O673       Cu679   2.018       .  S
O674        C684   1.277       .  A
O674       Cu679   2.007   1_565  S
O675        C684   1.277       .  A
O675       Cu680   2.008   1_565  S
O676        C683   1.279       .  A
O676       Cu680   2.021       .  S
O677        C682   1.279       .  A
O677       Cu680   2.015       .  S
O678        C681   1.277       .  A
O678       Cu680   2.014   1_565  S
Cu679      Cu680   2.365       .  S
C681        C956   1.498       .  S
C682        C946   1.497   1_545  S
C683        C926   1.487       .  S
C684        C936   1.474       .  S
C685        C906   1.478       .  S
C685        C686   1.402       .  A
C685        C690   1.402       .  A
C686        C687   1.403       .  A
C686        H691   1.084       .  S
C687        C966   1.482       .  S
C687        C688   1.403       .  A
C688        C689   1.403       .  A
C688        H692   1.083       .  S
C689        C916   1.478       .  S
C689        C690   1.402       .  A
C690        H693   1.085       .  S
C694        C886   1.476       .  S
C694        C695   1.402       .  A
C694        C699   1.402       .  A
C695        C696   1.403       .  A
C695        H700   1.083       .  S
C696        C929   1.483       .  S
C696        C697   1.403       .  A
C697        C698   1.400       .  A
C697        H701   1.083       .  S
C698        C899   1.473       .  S
C698        C699   1.400       .  A
C699        H702   1.085       .  S
C703        C876   1.475       .  S
C703        C704   1.401       .  A
C703        C708   1.401       .  A
C704        C705   1.403       .  A
C704        H709   1.083       .  S
C705        C976   1.483       .  S
C705        C706   1.403       .  A
C706        C707   1.403       .  A
C706        H710   1.083       .  S
C707        C866   1.479       .  S
C707        C708   1.403       .  A
C708        H711   1.085       .  S
C712        C856   1.474       .  S
C712        C713   1.402       .  A
C712        C717   1.400       .  A
C713        C714   1.404       .  A
C713        H718   1.083       .  S
C714        C939   1.486       .  S
C714        C715   1.404       .  A
C715        C716   1.402       .  A
C715        H719   1.083       .  S
C716        C846   1.474       .  S
C716        C717   1.400       .  A
C717        H720   1.085       .  S
C721        C879   1.475       .  S
C721        C726   1.401       .  A
C722        C723   1.403       .  A
C722        H727   1.085       .  S
C723        C869   1.481       .  S
C723        C724   1.404       .  A
C724        C725   1.403       .  A
C724        H728   1.083       .  S
C725        C839   1.479       .  S
C726        H729   1.083       .  S
C730        C859   1.474       .  S
C730        C735   1.402       .  A
C731        C732   1.401       .  A
C731        H736   1.085       .  S
C732        C849   1.474       .  S
C732        C733   1.401       .  A
C733        C734   1.404       .  A
C733        H737   1.083       .  S
C734        C826   1.484       .  S
C735        H738   1.083       .  S
C739        C919   1.478       .  S
C739        C740   1.402       .  A
C739        C744   1.402       .  A
C740        C741   1.402       .  A
C740        H745   1.083       .  S
C741        C819   1.478       .  S
C742        C743   1.402       .  A
C742        H746   1.084       .  S
C743        C909   1.478       .  S
C744        H747   1.085       .  S
C748        C896   1.472       .  S
C748        C749   1.400       .  A
C748        C753   1.402       .  A
C749        C750   1.399       .  A
C749        H754   1.083       .  S
C750        C809   1.474       .  S
C751        C752   1.403       .  A
C751        H755   1.083       .  S
C752        C889   1.477       .  S
C753        H756   1.085       .  S
O757       Cu765   2.005       .  S
O758      Cu1093   2.001       .  S
O759       Cu765   2.011       .  S
O760       Cu765   2.014       .  S
O761        C770   1.277       .  A
O761       Cu766   2.011       .  S
O762        C769   1.276       .  A
O762       Cu766   2.006       .  S
O763        C768   1.277       .  A
O763      Cu1094   2.002       .  S
O764        C767   1.275       .  A
O764       Cu766   1.998       .  S
Cu765      O1086   2.001       .  S
Cu766      O1091   2.002       .  S
C767        C786   1.497       .  S
C768        C799   1.492       .  S
C769        C836   1.471       .  S
C770        C816   1.476       .  S
O771       Cu779   1.999       .  S
O772       Cu779   2.001       .  S
O773       Cu779   2.013       .  S
O774       Cu779   2.010       .  S
O775        C784   1.276       .  A
O775       Cu780   2.010       .  S
O776        C783   1.277       .  A
O776       Cu780   2.011       .  S
O777        C782   1.276       .  A
O777       Cu780   2.004       .  S
O778        C781   1.277       .  A
O778       Cu780   2.009       .  S
C781        C796   1.497       .  S
C782        C789   1.500       .  S
C783        C829   1.482       .  S
C784        C806   1.472       .  S
C785        C786   1.420       .  A
C785        C790   1.411       .  A
C785       Br792   1.942       .  S
C787        C788   1.410       .  A
C787       Br794   1.942       .  S
C788       Br793   1.941       .  S
C789        C790   1.422       .  A
C790       Br791   1.942       .  S
C795        C796   1.420       .  A
C795        C800   1.407       .  A
C795       Br802   1.937       .  S
C797        C798   1.410       .  A
C797       Br804   1.941       .  S
C798       Br803   1.939       .  S
C799        C800   1.416       .  A
C800       Br801   1.940       .  S
C805        C810   1.406       .  A
C805       Br812   1.927       .  S
C806        C807   1.409       .  A
C807        C808   1.407       .  A
C807       Br814   1.928       .  S
C808        C809   1.408       .  A
C808       Br813   1.930       .  S
C810       Br811   1.930       .  S
C815        C820   1.407       .  A
C815       Br822   1.926       .  S
C816        C817   1.410       .  A
C817        C818   1.407       .  A
C817       Br824   1.927       .  S
C818        C819   1.410       .  A
C818       Br823   1.931       .  S
C820       Br821   1.932       .  S
C825        C830   1.408       .  A
C825       Br832   1.932       .  S
C826        C827   1.411       .  A
C827        C828   1.407       .  A
C827       Br834   1.933       .  S
C828        C829   1.411       .  A
C828       Br833   1.925       .  S
C830       Br831   1.928       .  S
C835        C840   1.408       .  A
C835       Br842   1.930       .  S
C836        C837   1.408       .  A
C837        C838   1.406       .  A
C837       Br844   1.931       .  S
C838        C839   1.410       .  A
C838       Br843   1.928       .  S
C840       Br841   1.930       .  S
C845        C846   1.408       .  A
C845        C850   1.406       .  A
C845       Br852   1.929       .  S
C846        C847   1.409       .  A
C847        C848   1.406       .  A
C847       Br854   1.929       .  S
C848        C849   1.407       .  A
C848       Br853   1.929       .  S
C849        C850   1.409       .  A
C850       Br851   1.929       .  S
C855        C856   1.408       .  A
C855        C860   1.406       .  A
C855       Br862   1.929       .  S
C856        C857   1.409       .  A
C857        C858   1.406       .  A
C857       Br864   1.929       .  S
C858        C859   1.408       .  A
C858       Br863   1.929       .  S
C859        C860   1.409       .  A
C860       Br861   1.929       .  S
C865       C1194   1.410       .  A
C865        C870   1.408       .  A
C865       Br872   1.931       .  S
C866       C1193   1.410       .  A
C866        C867   1.410       .  A
C867        C868   1.406       .  A
C867       Br874   1.931       .  S
C868        C869   1.410       .  A
C868       Br873   1.929       .  S
C869       C1198   1.411       .  A
C870       C1197   1.411       .  A
C870       Br871   1.929       .  S
C875       C1204   1.409   1_554  A
C875        C880   1.406       .  A
C875       Br882   1.929       .  S
C876       C1203   1.409       .  A
C876        C877   1.409       .  A
C877        C878   1.407       .  A
C877       Br884   1.929       .  S
C878        C879   1.409       .  A
C878       Br883   1.930       .  S
C879       C1208   1.408       .  A
C880       C1207   1.408   1_554  A
C880       Br881   1.930       .  S
C885        C886   1.410       .  A
C885        C890   1.407       .  A
C885       Br892   1.930       .  S
C886        C887   1.410       .  A
C887        C888   1.405       .  A
C887       Br894   1.931       .  S
C888        C889   1.409       .  A
C888       Br893   1.930       .  S
C889        C890   1.410       .  A
C890       Br891   1.930       .  S
C895        C896   1.408       .  A
C895        C900   1.405       .  A
C895       Br902   1.930       .  S
C896        C897   1.409       .  A
C897        C898   1.406       .  A
C897       Br904   1.930       .  S
C898        C899   1.408       .  A
C898       Br903   1.928       .  S
C899        C900   1.409       .  A
C900       Br901   1.929       .  S
C905       C1234   1.410       .  A
C905        C910   1.407       .  A
C905       Br912   1.931       .  S
C906       C1233   1.410       .  A
C906        C907   1.410       .  A
C907        C908   1.406       .  A
C907       Br914   1.931       .  S
C908        C909   1.410       .  A
C908       Br913   1.931       .  S
C909       C1238   1.410       .  A
C910       C1237   1.410   1_554  A
C910       Br911   1.931       .  S
C915       C1244   1.410   1_554  A
C915        C920   1.407       .  A
C915       Br922   1.931       .  S
C916       C1243   1.410       .  A
C916        C917   1.410       .  A
C917        C918   1.407       .  A
C917       Br924   1.931       .  S
C918        C919   1.410       .  A
C918       Br923   1.930       .  S
C919       C1248   1.410       .  A
C920       C1247   1.410   1_554  A
C920       Br921   1.931       .  S
C925        C926   1.412       .  A
C925        C930   1.409       .  A
C925       Br932   1.920       .  S
C926        C927   1.411       .  A
C927        C928   1.406       .  A
C927       Br934   1.919       .  S
C928        C929   1.410       .  A
C928       Br933   1.933       .  S
C929        C930   1.411       .  A
C930       Br931   1.934       .  S
C935        C936   1.409       .  A
C935        C940   1.408       .  A
C935       Br942   1.932       .  S
C936        C937   1.409       .  A
C937        C938   1.407       .  A
C937       Br944   1.932       .  S
C938        C939   1.414       .  A
C938       Br943   1.931       .  S
C939        C940   1.414       .  A
C940       Br941   1.931       .  S
C945        C946   1.417       .  A
C945        C950   1.411       .  A
C945       Br952   1.936       .  S
C946        C947   1.417   1_565  A
C947        C948   1.410       .  A
C947       Br954   1.928       .  S
C948        C949   1.414   1_545  A
C948       Br953   1.936       .  S
C949        C950   1.414       .  A
C950       Br951   1.935       .  S
C955        C956   1.418   1_545  A
C955        C960   1.410       .  A
C955       Br962   1.931       .  S
C956        C957   1.418       .  A
C957        C958   1.412       .  A
C957       Br964   1.936       .  S
C958        C959   1.415       .  A
C958       Br963   1.936       .  S
C959        C960   1.414   1_565  A
C960       Br961   1.936       .  S
C965        C966   1.412       .  A
C965        C970   1.408       .  A
C965       Br972   1.932       .  S
C966       C1295   1.412       .  A
C967       C1294   1.412   1_554  A
C967        C968   1.408       .  A
C967       Br974   1.932       .  S
C968       C1297   1.410   1_554  A
C968       Br973   1.931       .  S
C969       C1296   1.410       .  A
C969        C970   1.409       .  A
C970       Br971   1.931       .  S
C975        C976   1.413       .  A
C975        C980   1.408       .  A
C975       Br982   1.932       .  S
C976       C1305   1.413       .  A
C977       C1304   1.413   1_554  A
C977        C978   1.406       .  A
C977       Br984   1.931       .  S
C978       C1307   1.409   1_554  A
C978       Br983   1.932       .  S
C979        C997   1.473       .  S
C979       C1306   1.409       .  A
C979        C980   1.409       .  A
C980       Br981   1.931       .  S
O985        C995   1.278       .  A
O986        C996   1.278       .  A
O986       Cu993   2.010       .  S
O987       Cu993   2.008       .  S
O989       Cu994   2.009   1_545  S
O991        C996   1.278   1_545  A
O992        C995   1.278       .  A
O992       Cu994   2.012       .  S
C995       C1287   1.492       .  S
C996       C1277   1.490       .  S
C998       C1297   1.475       .  S
O999       C1009   1.279   1_545  A
O999      Cu1007   2.018       .  S
O1000      C1010   1.278   1_565  A
O1000     Cu1007   2.020   1_565  S
O1001      C1011   1.278       .  A
O1001     Cu1007   2.018       .  S
O1002      C1012   1.277       .  A
O1002     Cu1007   2.007   1_565  S
O1003      C1012   1.277       .  A
O1003     Cu1008   2.008   1_565  S
O1004      C1011   1.279       .  A
O1004     Cu1008   2.021       .  S
O1005      C1010   1.279       .  A
O1005     Cu1008   2.015       .  S
O1006      C1009   1.277       .  A
O1006     Cu1008   2.014   1_565  S
Cu1007    Cu1008   2.365       .  S
C1009      C1284   1.498       .  S
C1010      C1274   1.497   1_545  S
C1011      C1254   1.487       .  S
C1012      C1264   1.474       .  S
C1013      C1234   1.478       .  S
C1013      C1014   1.402       .  A
C1013      C1018   1.402   1_554  A
C1014      C1015   1.403   1_554  A
C1014      H1019   1.084       .  S
C1015      C1294   1.482       .  S
C1015      C1016   1.403       .  A
C1016      C1017   1.403       .  A
C1016      H1020   1.083       .  S
C1017      C1244   1.478       .  S
C1017      C1018   1.402       .  A
C1018      H1021   1.085   1_556  S
C1022      C1214   1.476       .  S
C1022      C1023   1.402       .  A
C1022      C1027   1.402       .  A
C1023      C1024   1.403       .  A
C1023      H1028   1.083       .  S
C1024      C1257   1.483       .  S
C1024      C1025   1.403       .  A
C1025      C1026   1.400       .  A
C1025      H1029   1.083       .  S
C1026      C1227   1.473       .  S
C1026      C1027   1.400       .  A
C1027      H1030   1.085       .  S
C1031      C1204   1.475       .  S
C1031      C1032   1.401       .  A
C1031      C1036   1.401   1_556  A
C1032      C1033   1.403       .  A
C1032      H1037   1.083       .  S
C1033      C1304   1.483       .  S
C1033      C1034   1.403   1_556  A
C1034      C1035   1.403       .  A
C1034      H1038   1.083       .  S
C1035      C1194   1.479       .  S
C1035      C1036   1.403       .  A
C1036      H1039   1.085       .  S
C1040      C1184   1.474       .  S
C1040      C1041   1.402       .  A
C1040      C1045   1.400       .  A
C1041      C1042   1.404       .  A
C1041      H1046   1.083       .  S
C1042      C1267   1.486       .  S
C1042      C1043   1.404       .  A
C1043      C1044   1.402       .  A
C1043      H1047   1.083       .  S
C1044      C1174   1.474       .  S
C1044      C1045   1.400       .  A
C1045      H1048   1.085       .  S
C1049      C1207   1.475   1_554  S
C1049      C1054   1.401       .  A
C1050      C1051   1.403       .  A
C1050      H1055   1.085       .  S
C1051      C1197   1.481       .  S
C1051      C1052   1.404       .  A
C1052      C1053   1.403       .  A
C1052      H1056   1.083       .  S
C1053      C1167   1.479       .  S
C1054      H1057   1.083       .  S
C1058      C1187   1.474       .  S
C1058      C1063   1.402       .  A
C1059      C1060   1.401       .  A
C1059      H1064   1.085       .  S
C1060      C1177   1.474       .  S
C1060      C1061   1.401       .  A
C1061      C1062   1.404       .  A
C1061      H1065   1.083       .  S
C1062      C1154   1.484       .  S
C1063      H1066   1.083       .  S
C1067      C1247   1.478       .  S
C1067      C1068   1.402       .  A
C1067      C1072   1.402       .  A
C1068      C1069   1.402       .  A
C1068      H1073   1.083       .  S
C1069      C1147   1.478       .  S
C1070      C1071   1.402       .  A
C1070      H1074   1.084       .  S
C1071      C1237   1.478       .  S
C1072      H1075   1.085       .  S
C1076      C1224   1.472       .  S
C1076      C1077   1.400       .  A
C1076      C1081   1.402       .  A
C1077      C1078   1.399       .  A
C1077      H1082   1.083       .  S
C1078      C1137   1.474       .  S
C1079      C1080   1.403       .  A
C1079      H1083   1.083       .  S
C1080      C1217   1.477       .  S
C1081      H1084   1.085       .  S
O1085     Cu1093   2.005   1_556  S
O1087     Cu1093   2.011       .  S
O1088     Cu1093   2.014       .  S
O1089      C1098   1.277       .  A
O1089     Cu1094   2.011       .  S
O1090      C1097   1.276       .  A
O1090     Cu1094   2.006       .  S
O1091      C1096   1.277       .  A
O1092      C1095   1.275       .  A
O1092     Cu1094   1.998   1_556  S
C1095      C1114   1.497       .  S
C1096      C1127   1.492       .  S
C1097      C1164   1.471       .  S
C1098      C1144   1.476       .  S
O1099     Cu1107   1.999       .  S
O1100     Cu1107   2.001       .  S
O1101     Cu1107   2.013       .  S
O1102     Cu1107   2.010       .  S
O1103      C1112   1.276       .  A
O1103     Cu1108   2.010       .  S
O1104      C1111   1.277       .  A
O1104     Cu1108   2.011       .  S
O1105      C1110   1.276       .  A
O1105     Cu1108   2.004       .  S
O1106      C1109   1.277       .  A
O1106     Cu1108   2.009       .  S
C1109      C1124   1.497       .  S
C1110      C1117   1.500       .  S
C1111      C1157   1.482       .  S
C1112      C1134   1.472       .  S
C1113      C1114   1.420       .  A
C1113      C1118   1.411       .  A
C1113     Br1120   1.942       .  S
C1115      C1116   1.410       .  A
C1115     Br1122   1.942       .  S
C1116     Br1121   1.941       .  S
C1117      C1118   1.422       .  A
C1118     Br1119   1.942       .  S
C1123      C1124   1.420       .  A
C1123      C1128   1.407       .  A
C1123     Br1130   1.937       .  S
C1125      C1126   1.410       .  A
C1125     Br1132   1.941       .  S
C1126     Br1131   1.939       .  S
C1127      C1128   1.416       .  A
C1128     Br1129   1.940       .  S
C1133      C1138   1.406       .  A
C1133     Br1140   1.927       .  S
C1134      C1135   1.409       .  A
C1135      C1136   1.407       .  A
C1135     Br1142   1.928       .  S
C1136      C1137   1.408       .  A
C1136     Br1141   1.930       .  S
C1138     Br1139   1.930       .  S
C1143      C1148   1.407       .  A
C1143     Br1150   1.926       .  S
C1144      C1145   1.410   1_554  A
C1145      C1146   1.407       .  A
C1145     Br1152   1.927       .  S
C1146      C1147   1.410       .  A
C1146     Br1151   1.931       .  S
C1148     Br1149   1.932       .  S
C1153      C1158   1.408       .  A
C1153     Br1160   1.932       .  S
C1154      C1155   1.411       .  A
C1155      C1156   1.407       .  A
C1155     Br1162   1.933       .  S
C1156      C1157   1.411       .  A
C1156     Br1161   1.925       .  S
C1158     Br1159   1.928       .  S
C1163      C1168   1.408       .  A
C1163     Br1170   1.930       .  S
C1164      C1165   1.408   1_554  A
C1165      C1166   1.406       .  A
C1165     Br1172   1.931       .  S
C1166      C1167   1.410   1_556  A
C1166     Br1171   1.928       .  S
C1168     Br1169   1.930       .  S
C1173      C1174   1.408       .  A
C1173      C1178   1.406       .  A
C1173     Br1180   1.929       .  S
C1174      C1175   1.409       .  A
C1175      C1176   1.406       .  A
C1175     Br1182   1.929       .  S
C1176      C1177   1.407       .  A
C1176     Br1181   1.929       .  S
C1177      C1178   1.409       .  A
C1178     Br1179   1.929       .  S
C1183      C1184   1.408       .  A
C1183      C1188   1.406       .  A
C1183     Br1190   1.929       .  S
C1184      C1185   1.409       .  A
C1185      C1186   1.406       .  A
C1185     Br1192   1.929       .  S
C1186      C1187   1.408       .  A
C1186     Br1191   1.929       .  S
C1187      C1188   1.409       .  A
C1188     Br1189   1.929       .  S
C1193      C1198   1.408       .  A
C1193     Br1200   1.931       .  S
C1194      C1195   1.410   1_554  A
C1195      C1196   1.406       .  A
C1195     Br1202   1.931       .  S
C1196      C1197   1.410   1_556  A
C1196     Br1201   1.929       .  S
C1198     Br1199   1.929       .  S
C1203      C1208   1.406       .  A
C1203     Br1210   1.929       .  S
C1204      C1205   1.409       .  A
C1205      C1206   1.407       .  A
C1205     Br1212   1.929       .  S
C1206      C1207   1.409       .  A
C1206     Br1211   1.930       .  S
C1208     Br1209   1.930       .  S
C1213      C1214   1.410       .  A
C1213      C1218   1.407       .  A
C1213     Br1220   1.930       .  S
C1214      C1215   1.410       .  A
C1215      C1216   1.405       .  A
C1215     Br1222   1.931       .  S
C1216      C1217   1.409       .  A
C1216     Br1221   1.930       .  S
C1217      C1218   1.410       .  A
C1218     Br1219   1.930       .  S
C1223      C1224   1.408       .  A
C1223      C1228   1.405       .  A
C1223     Br1230   1.930       .  S
C1224      C1225   1.409       .  A
C1225      C1226   1.406       .  A
C1225     Br1232   1.930       .  S
C1226      C1227   1.408       .  A
C1226     Br1231   1.928       .  S
C1227      C1228   1.409       .  A
C1228     Br1229   1.929       .  S
C1233      C1238   1.407       .  A
C1233     Br1240   1.931       .  S
C1234      C1235   1.410   1_554  A
C1235      C1236   1.406       .  A
C1235     Br1242   1.931       .  S
C1236      C1237   1.410       .  A
C1236     Br1241   1.931       .  S
C1238     Br1239   1.931       .  S
C1243      C1248   1.407       .  A
C1243     Br1250   1.931       .  S
C1244      C1245   1.410       .  A
C1245      C1246   1.407       .  A
C1245     Br1252   1.931       .  S
C1246      C1247   1.410       .  A
C1246     Br1251   1.930       .  S
C1248     Br1249   1.931       .  S
C1253      C1254   1.412       .  A
C1253      C1258   1.409       .  A
C1253     Br1260   1.920       .  S
C1254      C1255   1.411       .  A
C1255      C1256   1.406       .  A
C1255     Br1262   1.919       .  S
C1256      C1257   1.410       .  A
C1256     Br1261   1.933       .  S
C1257      C1258   1.411       .  A
C1258     Br1259   1.934       .  S
C1263      C1264   1.409       .  A
C1263      C1268   1.408       .  A
C1263     Br1270   1.932       .  S
C1264      C1265   1.409       .  A
C1265      C1266   1.407       .  A
C1265     Br1272   1.932       .  S
C1266      C1267   1.414       .  A
C1266     Br1271   1.931       .  S
C1267      C1268   1.414       .  A
C1268     Br1269   1.931       .  S
C1273      C1274   1.417       .  A
C1273      C1278   1.411       .  A
C1273     Br1280   1.936       .  S
C1274      C1275   1.417   1_565  A
C1275      C1276   1.410       .  A
C1275     Br1282   1.928       .  S
C1276      C1277   1.414   1_545  A
C1276     Br1281   1.936       .  S
C1277      C1278   1.414       .  A
C1278     Br1279   1.935       .  S
C1283      C1284   1.418   1_545  A
C1283      C1288   1.410       .  A
C1283     Br1290   1.931       .  S
C1284      C1285   1.418       .  A
C1285      C1286   1.412       .  A
C1285     Br1292   1.936       .  S
C1286      C1287   1.415       .  A
C1286     Br1291   1.936       .  S
C1287      C1288   1.414   1_565  A
C1288     Br1289   1.936       .  S
C1293      C1294   1.412       .  A
C1293      C1298   1.408       .  A
C1293     Br1300   1.932       .  S
C1295      C1296   1.408       .  A
C1295     Br1302   1.932       .  S
C1296     Br1301   1.931       .  S
C1297      C1298   1.409       .  A
C1298     Br1299   1.931       .  S
C1303      C1304   1.413       .  A
C1303      C1308   1.408       .  A
C1303     Br1310   1.932       .  S
C1305      C1306   1.406       .  A
C1305     Br1312   1.931       .  S
C1306     Br1311   1.932       .  S
C1307      C1308   1.409       .  A
C1308     Br1309   1.931       .  S
