geometry optimzed in LAMMPS
_audit_creation_date              2020-11-30 
_audit_creation_method            'lammps2cif' 
_symmetry_space_group_name_H-M    'P1' 
_symmetry_Int_Tables_number       1 
_symmetry_cell_setting            triclinic 
loop_ 
_symmetry_equiv_pos_as_xyz 
  x,y,z 
_cell_length_a                    40.85862099369376 
_cell_length_b                    40.72974372907317 
_cell_length_c                    40.06315793319764 
_cell_angle_alpha                 85.70077466966391 
_cell_angle_beta                  88.10490093521383 
_cell_angle_gamma                 91.1652596993179 
loop_ 
_atom_site_label 
_atom_site_type_symbol 
_atom_site_fract_x 
_atom_site_fract_y 
_atom_site_fract_z 
_atom_site_charge 
C1          C  0.09577689  0.26808741  0.52441090     0.03470
C2          C  0.12779516  0.26582517  0.03558965    -0.12680
C3          C  0.14362923  0.23545141  0.03818461     0.00970
C4          C  0.12654938  0.20725908  0.02917013    -0.11210
C5          C  0.09370862  0.20911836  0.51953965     0.03460
C6          C  0.07892611  0.23983144  0.51596918    -0.10630
H7          H  0.13969497  0.28763336  0.04393453     0.09050
H8          H  0.13789191  0.18344301  0.03166380     0.06580
H9          H  0.05320903  0.24125993  0.51027140     0.06430
C10         C  0.32615666  0.19803599  0.09393797     0.03470
C11         C  0.29285022  0.20073443  0.08702482    -0.12680
C12         C  0.27766451  0.23160232  0.08558697     0.00970
C13         C  0.29673020  0.25951913  0.09240791    -0.11210
C14         C  0.33073681  0.25726732  0.09725440     0.03460
C15         C  0.34484380  0.22626210  0.09908019    -0.10630
H16         H  0.27937104  0.17893946  0.08088950     0.09050
H17         H  0.28569705  0.28333473  0.09276621     0.06580
H18         H  0.37101582  0.22422117  0.10209845     0.06430
C19         C  0.17566704  0.45132688  0.19982701     0.03470
C20         C  0.17985323  0.45620847  0.23390022    -0.12680
C21         C  0.21098220  0.46322366  0.24584210     0.00970
C22         C  0.23856785  0.46269943  0.22416269    -0.11210
C23         C  0.23494374  0.45714033  0.19033532     0.03460
C24         C  0.20363583  0.45186558  0.17824527    -0.10630
H25         H  0.15892647  0.45526813  0.25123988     0.09050
H26         H  0.26264729  0.46821060  0.23316582     0.06580
H27         H  0.20114632  0.44917374  0.15174276     0.06430
C28         C  0.25002313  0.01992785  0.42821097     0.03470
C29         C  0.24910440  0.00855414  0.39588543    -0.12680
C30         C  0.21895740  0.00128707  0.38175757     0.00970
C31         C  0.18971306  0.00420097  0.40062888    -0.11210
C32         C  0.19052689  0.01433699  0.43320074     0.03460
C33         C  0.22030888  0.02362118  0.44613392    -0.10630
H34         H  0.27168330  0.00465043  0.38196109     0.09050
H35         H  0.16651425  0.99717468  0.39054480     0.06580
H36         H  0.22029883  0.03201672  0.47117257     0.06430
C37         C  0.00918643  0.12349438  0.26900810     0.03470
C38         C  0.00109345  0.15659934  0.27236809    -0.12680
C39         C  0.99553301  0.16816287  0.30421118     0.00970
C40         C  0.99984770  0.14676519  0.33278579    -0.11210
C41         C  0.00785945  0.11376108  0.32978192     0.03460
C42         C  0.01249687  0.10230415  0.29797254    -0.10630
H43         H  0.99729279  0.17284984  0.25022877     0.09050
H44         H  0.99492256  0.15521628  0.35744311     0.06580
H45         H  0.01629779  0.07627212  0.29582449     0.06430
C46         C  0.43152539  0.34201669  0.35738485     0.03470
C47         C  0.44104885  0.30963873  0.35296262    -0.12680
C48         C  0.44726419  0.29941763  0.32062980     0.00970
C49         C  0.44204735  0.32147097  0.29267959    -0.11210
C50         C  0.43181925  0.35368437  0.29693520     0.03460
C51         C  0.42662366  0.36371138  0.32930413    -0.10630
H52         H  0.44519573  0.29294340  0.37467823     0.09050
H53         H  0.44691157  0.31391392  0.26765781     0.06580
H54         H  0.42009507  0.38895806  0.33266030     0.06430
O55         O  0.02462972  0.41156660  0.01600317    -0.86150
O56         O  0.42960186  0.46648411  0.16837042    -0.86320
O57         O  0.03142950  0.42974374  0.12959742    -0.87990
O58         O  0.44230112  0.37972521  0.09946916    -0.86740
O59         O  0.39978161  0.39835472  0.06832943    -0.86330
O60         O  0.05438745  0.48142144  0.11757110    -0.87700
O61         O  0.45900863  0.42092605  0.15660924    -0.86180
O62         O  0.01430191  0.39086361  0.07001963    -0.85770
Zr63       Zr  0.48028328  0.42799094  0.09939922     2.84310
O64         O  0.42854389  0.45121698  0.09887905    -1.07740
O65         O  0.01637164  0.46092598  0.06367425    -1.08470
C66         C  0.02750380  0.38936596  0.04048611     1.06960
C67         C  0.44139405  0.43774335  0.17609373     1.06900
C68         C  0.05418540  0.45194042  0.13180514     1.09880
C69         C  0.41395455  0.37587805  0.08644890     1.07660
H70         H  0.49106384  0.48032243  0.14089411     0.33220
O71         O  0.48310218  0.48117098  0.11841781    -1.28700
H72         H  0.46050213  0.40867275  0.03733162     0.32890
O73         O  0.46155553  0.43065664  0.04478457    -1.30370
O74         O  0.40218838  0.05662054  0.10982143    -0.86150
O75         O  0.49780945  0.50141554  0.45776771    -0.87640
O76         O  0.01445954  0.04456897  0.13226540    -0.86220
O77         O  0.36108650  0.45440266  0.08267136    -0.86270
O78         O  0.41443329  0.42146801  0.99464955    -0.85980
O79         O  0.06705672  0.01341019  0.04434597    -0.85790
O80         O  0.48443903  0.08717559  0.02768613    -0.86160
O81         O  0.39429089  0.03740129  0.99819290    -0.85620
O82         O  0.02655248  0.07066879  0.06108711    -0.86690
O83         O  0.37314842  0.48491385  0.00945761    -0.85850
O84         O  0.46123207  0.03957830  0.15258512    -0.86240
O85         O  0.05339823  0.48299317  0.00057581    -0.85970
O86         O  0.46665040  0.43121732  0.47309353    -0.85620
O87         O  0.37430546  0.48636924  0.12544262    -0.86020
O88         O  0.41358284  0.07720739  0.05595037    -0.86320
O89         O  0.46668843  0.04570093  0.46954560    -0.87660
Zr90       Zr  0.43098126  0.50423759  0.11754619     2.83100
Zr91       Zr  0.49693043  0.46434788  0.00920079     2.83500
Zr92       Zr  0.01845128  0.01397940  0.08206057     2.84090
Zr93       Zr  0.40955998  0.45336232  0.04453006     2.83360
Zr94       Zr  0.44671621  0.03926722  0.02710317     2.84220
O95         O  0.44438711  0.48639234  0.00791371    -1.08230
O96         O  0.46642319  0.03699481  0.08150937    -1.07730
C97         C  0.39994532  0.07885964  0.08522121     1.06930
C98         C  0.48467559  0.02947848  0.44981982     1.09550
C99         C  0.49090170  0.05105548  0.15294499     1.07100
C100        C  0.35449382  0.46804866  0.11024915     1.07460
C101        C  0.43796468  0.41754993  0.47287977     1.07050
C102        C  0.07325684  0.50100467  0.01605821     1.06600
C103        C  0.01175877  0.09224084  0.04225357     1.07020
C104        C  0.37176108  0.01474337  0.99656004     1.06540
H105        H  0.01346903  0.03103166  0.01311712     0.33210
O106        O  0.49898369  0.01711856  0.02780622    -1.29330
H107        H  0.38975664  0.01521329  0.06325085     0.33240
O108        O  0.41145121  0.50629996  0.06317495    -1.30710
C109        C  0.41217359  0.39449589  0.21185638    -0.11930
C110        C  0.43402844  0.42163990  0.20962353     0.05070
C111        C  0.45300553  0.42811064  0.23736294    -0.07220
C112        C  0.45048369  0.40609563  0.26613219    -0.07960
C113        C  0.42978909  0.37798281  0.26771625    -0.02510
C114        C  0.40957354  0.37258293  0.24061544     0.04300
N115        N  0.38668438  0.34508146  0.24170381     0.66810
H116        H  0.39773675  0.38981252  0.19047819     0.15710
H117        H  0.46575416  0.41016502  0.28710883     0.15420
N118        N  0.47609379  0.45550268  0.23619226     0.74510
O119        O  0.37807651  0.33342847  0.21492191    -0.38940
O120        O  0.37252464  0.33441590  0.26897624    -0.38880
O121        O  0.47125622  0.48166838  0.21828233    -0.39580
O122        O  0.00015580  0.45467238  0.25520448    -0.39650
C123        C  0.46197060  0.38026365  0.43335732    -0.11930
C124        C  0.43356397  0.39489144  0.44583602     0.05070
C125        C  0.40324817  0.38828620  0.43122839    -0.07220
C126        C  0.40260038  0.36835719  0.40393236    -0.07960
C127        C  0.43147813  0.35538637  0.39068880    -0.02510
C128        C  0.46134013  0.36113093  0.40597236     0.04300
N129        N  0.49175576  0.35050566  0.39203798     0.66810
H130        H  0.48542595  0.38443529  0.44438073     0.15710
H131        H  0.37977230  0.36471541  0.39154111     0.15420
N132        N  0.37353143  0.40325785  0.44185501     0.74510
O133        O  0.01408193  0.37150091  0.38305551    -0.38940
O134        O  0.49843326  0.32033111  0.39420570    -0.38880
O135        O  0.37285875  0.43395881  0.44432999    -0.39580
O136        O  0.34686687  0.38691775  0.44323212    -0.39650
C137        C  0.48157807  0.11559392  0.21588096    -0.11930
C138        C  0.00867225  0.10936451  0.23583606     0.05070
C139        C  0.03217697  0.08662524  0.22583974    -0.07220
C140        C  0.02635176  0.06864883  0.19789648    -0.07960
C141        C  0.49815302  0.07351983  0.17923751    -0.02510
C142        C  0.47629697  0.09855108  0.18731984     0.04300
N143        N  0.44901425  0.10731324  0.16677492     0.66810
H144        H  0.46379728  0.13332125  0.22315552     0.15710
H145        H  0.04358385  0.05020184  0.19106435     0.15420
N146        N  0.06179601  0.08144425  0.24379204     0.74510
O147        O  0.42443374  0.12090900  0.17921454    -0.38940
O148        O  0.45141764  0.10622319  0.13539183    -0.38880
O149        O  0.07538282  0.05386880  0.24459989    -0.39580
O150        O  0.07601490  0.10509775  0.25647930    -0.39650
C151        C  0.02256382  0.04986853  0.40229691    -0.11930
C152        C  0.49045076  0.04549085  0.41576603     0.05070
C153        C  0.46460943  0.06179571  0.39941899    -0.07220
C154        C  0.47164714  0.08398683  0.37178941    -0.07960
C155        C  0.00373867  0.08987604  0.35928274    -0.02510
C156        C  0.02974254  0.07203578  0.37403606     0.04300
N157        N  0.06327163  0.07688636  0.36186249     0.66810
H158        H  0.04232203  0.03753924  0.41513799     0.15710
H159        H  0.45171449  0.09663916  0.35953250     0.15420
N160        N  0.43106511  0.05607567  0.41062183     0.74510
O161        O  0.08437836  0.05565900  0.36960033    -0.38940
O162        O  0.07258506  0.10320921  0.34532473    -0.38880
O163        O  0.41071076  0.07889802  0.40717247    -0.39580
O164        O  0.42097593  0.02740128  0.42065826    -0.39650
C165        C  0.44301535  0.23851944  0.33120495    -0.11930
C166        C  0.46041918  0.26613097  0.31625468     0.05070
C167        C  0.48941489  0.26139935  0.29690555    -0.07220
C168        C  0.99970547  0.22917390  0.29257342    -0.07960
C169        C  0.48234206  0.20159184  0.30768511    -0.02510
C170        C  0.45328078  0.20636922  0.32685811     0.04300
N171        N  0.43322321  0.17900031  0.34094000     0.66810
H172        H  0.42053261  0.24203842  0.34548537     0.15690
H173        H  0.02219029  0.22557129  0.27833390     0.15420
N174        N  0.00943172  0.28879427  0.28276571     0.74510
O175        O  0.41769928  0.18090651  0.36848009    -0.38940
O176        O  0.42780924  0.15456574  0.32413175    -0.38880
O177        O  0.01412677  0.31366867  0.29915244    -0.39580
O178        O  0.02567479  0.28652222  0.25570368    -0.39650
C179        C  0.12850636  0.48317452  0.50129113    -0.11930
C180        C  0.10530385  0.00797640  0.49902229     0.05070
C181        C  0.11040598  0.03543070  0.47537956    -0.07220
C182        C  0.13829744  0.03654776  0.45377665    -0.07960
C183        C  0.16106216  0.01130855  0.45555693    -0.02510
C184        C  0.15647715  0.48441681  0.47992522     0.04300
N185        N  0.17929957  0.45788005  0.48286964     0.66810
H186        H  0.12392595  0.46185196  0.01881944     0.15710
H187        H  0.14253952  0.05736075  0.43555544     0.15420
N188        N  0.08751179  0.06190339  0.47256274     0.74510
O189        O  0.18206910  0.44148152  0.51061540    -0.38940
O190        O  0.19439362  0.44858705  0.45736522    -0.38880
O191        O  0.07075530  0.06935429  0.99778351    -0.39580
O192        O  0.08669121  0.08039785  0.44587050    -0.39650
C193        C  0.28235484  0.01042335  0.47903247    -0.11930
C194        C  0.28146849  0.02349025  0.44562189     0.05070
C195        C  0.31054946  0.03798101  0.42999934    -0.07220
C196        C  0.33992713  0.03670879  0.44757068    -0.07960
C197        C  0.34054232  0.02264187  0.48053951    -0.02510
C198        C  0.31097011  0.01108627  0.99691791     0.04300
N199        N  0.30968929  0.00029568  0.03194752     0.66810
H200        H  0.26054714  0.99924770  0.49154775     0.15710
H201        H  0.36239464  0.04622951  0.43533564     0.15420
N202        N  0.31073490  0.05425285  0.39685795     0.74510
O203        O  0.32499084  0.01651969  0.05233108    -0.38940
O204        O  0.29020417  0.47730163  0.04312030    -0.38880
O205        O  0.28702905  0.07178666  0.38774148    -0.39580
O206        O  0.33612686  0.05427174  0.37800970    -0.39650
C207        C  0.13752246  0.42556429  0.16088424    -0.11930
C208        C  0.14232686  0.44741643  0.18602660     0.05070
C209        C  0.11567054  0.46653552  0.19592711    -0.07220
C210        C  0.08589250  0.46439054  0.18002601    -0.07960
C211        C  0.08199741  0.44451214  0.15336062    -0.02510
C212        C  0.10789470  0.42418019  0.14398174     0.04300
N213        N  0.10550996  0.40377918  0.11627162     0.66810
H214        H  0.15736014  0.41004660  0.15366232     0.15710
H215        H  0.06640999  0.48065483  0.18669215     0.15420
N216        N  0.11928237  0.49108387  0.21925730     0.74510
O217        O  0.13088700  0.39727965  0.09937767    -0.38940
O218        O  0.07878180  0.38959541  0.11052438    -0.38880
O219        O  0.13501584  0.51741460  0.21031186    -0.39580
O220        O  0.10162493  0.48936765  0.24580582    -0.39650
C221        C  0.28265749  0.43135363  0.16398126    -0.11930
C222        C  0.26382542  0.45946257  0.16706544     0.05070
C223        C  0.27315006  0.48926277  0.14847208    -0.07220
C224        C  0.30222628  0.49046101  0.12879512    -0.07960
C225        C  0.32179861  0.46276887  0.12658822    -0.02510
C226        C  0.31173651  0.43246531  0.14400215     0.04300
N227        N  0.33100707  0.40319131  0.14308017     0.66810
H228        H  0.27510819  0.40863758  0.17822546     0.15710
H229        H  0.31042480  0.01372129  0.11607942     0.15420
N230        N  0.25398543  0.01855592  0.14944037     0.74510
O231        O  0.31767447  0.37513558  0.14987416    -0.38940
O232        O  0.36165645  0.40507979  0.13805105    -0.38880
O233        O  0.23801859  0.02478401  0.17562800    -0.39580
O234        O  0.25486465  0.03965787  0.12464928    -0.39650
C235        C  0.23180563  0.45428209  0.30357153    -0.11930
C236        C  0.21423192  0.47370826  0.28027786     0.05070
C237        C  0.19900223  0.00240530  0.29038505    -0.07220
C238        C  0.20043068  0.01006195  0.32382715    -0.07960
C239        C  0.21762376  0.99053703  0.34727773    -0.02510
C240        C  0.23358115  0.46216865  0.33711724     0.04300
N241        N  0.25051638  0.44056128  0.36049498     0.66810
H242        H  0.24328284  0.43222503  0.29577141     0.15710
H243        H  0.18896069  0.03220226  0.33145537     0.15420
N244        N  0.18340555  0.02482451  0.26679441     0.74510
O245        O  0.23986929  0.43527521  0.39039953    -0.38940
O246        O  0.27412615  0.42392221  0.35042725    -0.38880
O247        O  0.15938175  0.04130037  0.27616221    -0.39580
O248        O  0.19654724  0.03192362  0.23813571    -0.39650
C249        C  0.38600294  0.13580100  0.06541160    -0.11930
C250        C  0.38066415  0.10908228  0.08961355     0.05070
C251        C  0.35588209  0.11162963  0.11489272    -0.07220
C252        C  0.33733833  0.14038210  0.11501977    -0.07960
C253        C  0.34309269  0.16669803  0.09075110    -0.02510
C254        C  0.36726145  0.16409992  0.06520949     0.04300
N255        N  0.37266307  0.18961653  0.03853228     0.66810
H256        H  0.40458800  0.13451383  0.04567488     0.15710
H257        H  0.31890948  0.14259562  0.13476169     0.15420
N258        N  0.34882216  0.08556206  0.14033197     0.74510
O259        O  0.40070743  0.19418936  0.02455232    -0.38940
O260        O  0.34883420  0.20504397  0.02626633    -0.38880
O261        O  0.36988659  0.07816277  0.16180458    -0.39580
O262        O  0.31959288  0.07553153  0.14598983    -0.39650
C263        C  0.37027804  0.33974488  0.06755465    -0.11930
C264        C  0.39489854  0.34396257  0.09077694     0.05070
C265        C  0.39938062  0.31816489  0.11587311    -0.07220
C266        C  0.37789891  0.29033366  0.11799851    -0.07960
C267        C  0.35253971  0.28725565  0.09525972    -0.02510
C268        C  0.34991767  0.31188075  0.06890961     0.04300
N269        N  0.32879486  0.30793288  0.04150931     0.66810
H270        H  0.36751026  0.35783347  0.04666297     0.15710
H271        H  0.38090441  0.27103968  0.13771365     0.15420
N272        N  0.42540184  0.31923903  0.13896571     0.74510
O273        O  0.31516471  0.33274787  0.02773794    -0.38940
O274        O  0.32951807  0.28168436  0.02665733    -0.38880
O275        O  0.42873956  0.34351843  0.15643017    -0.39580
O276        O  0.44203803  0.29390651  0.14545365    -0.39650
C277        C  0.03021654  0.14174937  0.00499306    -0.11930
C278        C  0.02889137  0.12469738  0.03686988     0.05070
C279        C  0.04834584  0.13622130  0.06229960    -0.07220
C280        C  0.07013088  0.16262531  0.05478537    -0.07960
C281        C  0.07249983  0.17908626  0.02286669    -0.02510
C282        C  0.05171541  0.16913985  0.49759552     0.04300
N283        N  0.05266789  0.18564042  0.46444782     0.66810
H284        H  0.51563487  0.13271064  0.48537283     0.15710
H285        H  0.08438766  0.17146912  0.07471579     0.15420
N286        N  0.04545942  0.12210755  0.09625067     0.74510
O287        O  0.02843797  0.18345744  0.44590037    -0.38940
O288        O  0.07840641  0.20042984  0.45256363    -0.38880
O289        O  0.07045100  0.11947706  0.11389479    -0.39580
O290        O  0.01748663  0.11659914  0.11002357    -0.39650
C291        C  0.04895871  0.33560899  0.06254912    -0.11930
C292        C  0.04664843  0.35921144  0.03514237     0.05070
C293        C  0.06128052  0.35231288  0.50386925    -0.07220
C294        C  0.07615065  0.32183367  0.50065993    -0.07960
C295        C  0.07787796  0.29861991  0.02812485    -0.02510
C296        C  0.06445575  0.30566411  0.05958794     0.04300
N297        N  0.06648323  0.28301218  0.08886151     0.66810
H298        H  0.03814800  0.34006611  0.08678033     0.15710
H299        H  0.08740437  0.31661928  0.47680868     0.15420
N300        N  0.06231276  0.37596516  0.47546844     0.74510
O301        O  0.06842297  0.29381153  0.11748145    -0.38940
O302        O  0.06327321  0.25235026  0.08679629    -0.38880
O303        O  0.07746373  0.40309900  0.47707023    -0.39580
O304        O  0.05471704  0.36709047  0.44716237    -0.39650
C305        C  0.20001378  0.25894404  0.04066969    -0.11930
C306        C  0.17739566  0.23379275  0.05152954     0.05070
C307        C  0.18750381  0.20857611  0.07504775    -0.07220
C308        C  0.21992568  0.20884996  0.08598576    -0.07960
C309        C  0.24272007  0.23412383  0.07494530    -0.02510
C310        C  0.23186583  0.25977333  0.05232272     0.04300
N311        N  0.25268904  0.28666732  0.03967122     0.66810
H312        H  0.19303914  0.27836014  0.02246426     0.15710
H313        H  0.22709736  0.18946089  0.10409328     0.15420
N314        N  0.16506237  0.18340391  0.08932211     0.74510
O315        O  0.26357044  0.28696949  0.00980729    -0.38940
O316        O  0.24992647  0.31374526  0.05280874    -0.38880
O317        O  0.17413312  0.15397023  0.09345158    -0.39580
O318        O  0.13788775  0.19117803  0.10201165    -0.39650
C319        C  0.09577690  0.26808744  0.02441093     0.03470
C320        C  0.12779515  0.26582515  0.53558960    -0.12680
C321        C  0.14362921  0.23545139  0.53818459     0.00970
C322        C  0.12654933  0.20725905  0.52917016    -0.11210
C323        C  0.09370869  0.20911842  0.01953959     0.03460
C324        C  0.07892615  0.23983147  0.01596916    -0.10630
H325        H  0.13969497  0.28763335  0.54393445     0.09050
H326        H  0.13789185  0.18344298  0.53166384     0.06580
H327        H  0.05320907  0.24125995  0.01027137     0.06430
C328        C  0.32615688  0.19803562  0.59393790     0.03470
C329        C  0.29285035  0.20073417  0.58702478    -0.12680
C330        C  0.27766460  0.23160213  0.58558694     0.00970
C331        C  0.29673026  0.25951891  0.59240791    -0.11210
C332        C  0.33073685  0.25726708  0.59725437     0.03460
C333        C  0.34484392  0.22626184  0.59908010    -0.10630
H334        H  0.27937112  0.17893924  0.58088950     0.09050
H335        H  0.28569711  0.28333453  0.59276622     0.06580
H336        H  0.37101594  0.22422099  0.60209835     0.06430
C337        C  0.17566706  0.45132688  0.69982697     0.03470
C338        C  0.17985325  0.45620847  0.73390018    -0.12680
C339        C  0.21098221  0.46322365  0.74584205     0.00970
C340        C  0.23856788  0.46269941  0.72416264    -0.11210
C341        C  0.23494382  0.45714032  0.69033524     0.03460
C342        C  0.20363587  0.45186557  0.67824522    -0.10630
H343        H  0.15892648  0.45526813  0.75123984     0.09050
H344        H  0.26264731  0.46821058  0.73316578     0.06580
H345        H  0.20114634  0.44917374  0.65174271     0.06430
C346        C  0.25002286  0.01992787  0.92821082     0.03470
C347        C  0.24910426  0.00855405  0.89588539    -0.12680
C348        C  0.21895734  0.00128695  0.88175756     0.00970
C349        C  0.18971299  0.00420085  0.90062886    -0.11210
C350        C  0.19052680  0.01433688  0.93320073     0.03460
C351        C  0.22030871  0.02362118  0.94613385    -0.10630
H352        H  0.27168319  0.00465032  0.88196110     0.09050
H353        H  0.16651419  0.99717456  0.89054478     0.06580
H354        H  0.22029867  0.03201679  0.97117247     0.06430
C355        C  0.00918643  0.12349440  0.76900802     0.03470
C356        C  0.00109344  0.15659937  0.77236804    -0.12680
C357        C  0.99553301  0.16816291  0.80421114     0.00970
C358        C  0.99984771  0.14676524  0.83278574    -0.11210
C359        C  0.00785947  0.11376114  0.82978186     0.03460
C360        C  0.01249689  0.10230419  0.79797248    -0.10630
H361        H  0.99729278  0.17284987  0.75022872     0.09050
H362        H  0.99492258  0.15521631  0.85744307     0.06580
H363        H  0.01629781  0.07627216  0.79582444     0.06430
C364        C  0.43152548  0.34201674  0.85738496     0.03470
C365        C  0.44104892  0.30963876  0.85296270    -0.12680
C366        C  0.44726425  0.29941763  0.82062987     0.00970
C367        C  0.44204739  0.32147096  0.79267966    -0.11210
C368        C  0.43181928  0.35368434  0.79693529     0.03460
C369        C  0.42662372  0.36371138  0.82930422    -0.10630
H370        H  0.44519578  0.29294341  0.87467831     0.09050
H371        H  0.44691161  0.31391392  0.76765787     0.06580
H372        H  0.42009512  0.38895807  0.83266036     0.06430
O373        O  0.02462974  0.41156649  0.51600312    -0.86150
O374        O  0.42960261  0.46648394  0.66837078    -0.86320
O375        O  0.03142952  0.42974369  0.62959745    -0.87990
O376        O  0.44230137  0.37972471  0.59946920    -0.86740
O377        O  0.39978209  0.39835411  0.56832920    -0.86330
O378        O  0.05438745  0.48142141  0.61757119    -0.87700
O379        O  0.45900883  0.42092566  0.65660933    -0.86180
O380        O  0.01430193  0.39086350  0.57001958    -0.85770
Zr381      Zr  0.48028347  0.42799053  0.59939928     2.84310
O382        O  0.42854389  0.45121624  0.59887949    -1.07740
O383        O  0.01637158  0.46092596  0.56367423    -1.08470
C384        C  0.02750381  0.38936587  0.54048606     1.06960
C385        C  0.44139446  0.43774306  0.67609390     1.06900
C386        C  0.05418538  0.45194039  0.63180521     1.09880
C387        C  0.41395486  0.37587754  0.58644884     1.07660
H388        H  0.49106489  0.48032191  0.64089521     0.33220
O389        O  0.48310330  0.48117048  0.61841910    -1.28700
H390        H  0.46050280  0.40867128  0.53733119     0.32890
O391        O  0.46155618  0.43065503  0.54478412    -1.30370
O392        O  0.40218825  0.05661804  0.60982058    -0.86150
O393        O  0.49780917  0.50141576  0.95776795    -0.87640
O394        O  0.01445913  0.04456887  0.63226529    -0.86220
O395        O  0.36108708  0.45440281  0.58267093    -0.86270
O396        O  0.41443370  0.42146716  0.49464954    -0.85980
O397        O  0.06705657  0.01341012  0.54434601    -0.85790
O398        O  0.48444139  0.08717524  0.52768448    -0.86160
O399        O  0.39429199  0.03740111  0.49819503    -0.85620
O400        O  0.02655203  0.07066880  0.56108721    -0.86690
O401        O  0.37314882  0.48491379  0.50945833    -0.85850
O402        O  0.46123373  0.03957730  0.65258667    -0.86240
O403        O  0.05339826  0.48299317  0.50057578    -0.85970
O404        O  0.46665023  0.43121756  0.97309382    -0.85620
O405        O  0.37430596  0.48636961  0.62544208    -0.86020
O406        O  0.41358229  0.07720485  0.55594927    -0.86320
O407        O  0.46668583  0.04570061  0.96954614    -0.87660
Zr408      Zr  0.43098224  0.50423718  0.61754660     2.83100
Zr409      Zr  0.49693065  0.46434757  0.50920057     2.83500
Zr410      Zr  0.01845092  0.01397940  0.58206043     2.84090
Zr411      Zr  0.40956085  0.45336143  0.54452985     2.83360
Zr412      Zr  0.44671945  0.03926683  0.52710235     2.84220
O413        O  0.44438735  0.48639211  0.50791295    -1.08230
O414        O  0.46642479  0.03699687  0.58151030    -1.07730
C415        C  0.39994465  0.07885713  0.58522016     1.06930
C416        C  0.48467421  0.02947883  0.94982057     1.09550
C417        C  0.49090289  0.05105545  0.65294567     1.07100
C418        C  0.35449427  0.46804896  0.61024866     1.07460
C419        C  0.43796443  0.41755036  0.97287997     1.07050
C420        C  0.07325685  0.50100469  0.51605820     1.06600
C421        C  0.01175818  0.09224090  0.54225386     1.07020
C422        C  0.37176190  0.01474327  0.49656232     1.06540
H423        H  0.01346754  0.03103141  0.51311784     0.33210
O424        O  0.49898832  0.01711977  0.52780363    -1.29330
H425        H  0.38975481  0.01521333  0.56325061     0.33240
O426        O  0.41144964  0.50630045  0.56317494    -1.30710
C427        C  0.41217374  0.39449578  0.71185647    -0.11930
C428        C  0.43402871  0.42163969  0.70962364     0.05070
C429        C  0.45300570  0.42811051  0.73736305    -0.07220
C430        C  0.45048379  0.40609555  0.76613231    -0.07960
C431        C  0.42978914  0.37798276  0.76771636    -0.02510
C432        C  0.40957359  0.37258288  0.74061553     0.04300
N433        N  0.38668438  0.34508145  0.74170389     0.66810
H434        H  0.39773692  0.38981245  0.69047825     0.15710
H435        H  0.46575424  0.41016495  0.78710898     0.15420
N436        N  0.47609395  0.45550257  0.73619234     0.74510
O437        O  0.37807649  0.33342849  0.71492198    -0.38940
O438        O  0.37252463  0.33441589  0.76897631    -0.38880
O439        O  0.47125644  0.48166822  0.71828231    -0.39580
O440        O  0.00015584  0.45467239  0.75520450    -0.39650
C441        C  0.46197052  0.38026381  0.93335761    -0.11930
C442        C  0.43356384  0.39489165  0.94583625     0.05070
C443        C  0.40324811  0.38828635  0.93122851    -0.07220
C444        C  0.40260041  0.36835734  0.90393246    -0.07960
C445        C  0.43147816  0.35538648  0.89068895    -0.02510
C446        C  0.46134011  0.36113103  0.90597261     0.04300
N447        N  0.49175576  0.35050569  0.89203830     0.66810
H448        H  0.48542584  0.38443547  0.94438104     0.15710
H449        H  0.37977236  0.36471558  0.89154115     0.15420
N450        N  0.37353135  0.40325801  0.94185501     0.74510
O451        O  0.01408188  0.37150086  0.88305554    -0.38940
O452        O  0.49843316  0.32033111  0.89420591    -0.38880
O453        O  0.37285866  0.43395898  0.94432991    -0.39580
O454        O  0.34686679  0.38691793  0.94323198    -0.39650
C455        C  0.48157817  0.11559403  0.71588109    -0.11930
C456        C  0.00867220  0.10936448  0.73583597     0.05070
C457        C  0.03217686  0.08662516  0.72583963    -0.07220
C458        C  0.02635152  0.06864867  0.69789641    -0.07960
C459        C  0.49815379  0.07352027  0.67923764    -0.02510
C460        C  0.47629737  0.09855128  0.68731986     0.04300
N461        N  0.44901449  0.10731308  0.66677496     0.66810
H462        H  0.46379719  0.13332117  0.72315571     0.15710
H463        H  0.04358357  0.05020166  0.69106423     0.15420
N464        N  0.06179597  0.08144424  0.74379186     0.74510
O465        O  0.42443391  0.12090878  0.67921454    -0.38940
O466        O  0.45141771  0.10622263  0.63539190    -0.38880
O467        O  0.07538277  0.05386879  0.74459980    -0.39580
O468        O  0.07601478  0.10509773  0.75647920    -0.39650
C469        C  0.02256397  0.04986843  0.90229660    -0.11930
C470        C  0.49045017  0.04549143  0.91576684     0.05070
C471        C  0.46460905  0.06179604  0.89941933    -0.07220
C472        C  0.47164692  0.08398684  0.87178954    -0.07960
C473        C  0.00373873  0.08987609  0.85928265    -0.02510
C474        C  0.02974262  0.07203581  0.87403587     0.04300
N475        N  0.06327171  0.07688644  0.86186234     0.66810
H476        H  0.04232222  0.03753916  0.91513763     0.15710
H477        H  0.45171431  0.09663898  0.85953237     0.15420
N478        N  0.43106468  0.05607580  0.91062176     0.74510
O479        O  0.08437846  0.05565911  0.86960023    -0.38940
O480        O  0.07258513  0.10320932  0.84532465    -0.38880
O481        O  0.41071030  0.07889811  0.90717242    -0.39580
O482        O  0.42097557  0.02740134  0.92065805    -0.39650
C483        C  0.44301535  0.23851944  0.83120495    -0.11930
C484        C  0.46041922  0.26613097  0.81625470     0.05070
C485        C  0.48941490  0.26139932  0.79690554    -0.07220
C486        C  0.99970548  0.22917394  0.79257343    -0.07960
C487        C  0.48234206  0.20159182  0.80768515    -0.02510
C488        C  0.45328077  0.20636922  0.82685812     0.04300
N489        N  0.43322318  0.17900032  0.84093999     0.66810
H490        H  0.42053262  0.24203844  0.84548537     0.15690
H491        H  0.02219030  0.22557133  0.77833392     0.15420
N492        N  0.00943173  0.28879430  0.78276572     0.74510
O493        O  0.41769928  0.18090651  0.86848009    -0.38940
O494        O  0.42780920  0.15456575  0.82413174    -0.38880
O495        O  0.01412679  0.31366870  0.79915245    -0.39580
O496        O  0.02567480  0.28652225  0.75570369    -0.39650
C497        C  0.12850642  0.48317458  0.00129119    -0.11930
C498        C  0.10530401  0.00797632  0.99902240     0.05070
C499        C  0.11040637  0.03543085  0.97538006    -0.07220
C500        C  0.13829771  0.03654791  0.95377704    -0.07960
C501        C  0.16106216  0.01130845  0.95555695    -0.02510
C502        C  0.15647721  0.48441687  0.97992528     0.04300
N503        N  0.17929968  0.45788014  0.98286976     0.66810
H504        H  0.12392584  0.46185186  0.51881931     0.15710
H505        H  0.14253992  0.05736109  0.93555610     0.15420
N506        N  0.08751248  0.06190378  0.97256378     0.74510
O507        O  0.18206923  0.44148167  0.01061555    -0.38940
O508        O  0.19439373  0.44858709  0.95736536    -0.38880
O509        O  0.07075311  0.06935307  0.49778180    -0.39580
O510        O  0.08669094  0.08039773  0.94587128    -0.39650
C511        C  0.28235443  0.01042354  0.97903212    -0.11930
C512        C  0.28146804  0.02349043  0.94562154     0.05070
C513        C  0.31054886  0.03798119  0.92999872    -0.07220
C514        C  0.33992644  0.03670910  0.94756972    -0.07960
C515        C  0.34054166  0.02264210  0.98053826    -0.02510
C516        C  0.31097049  0.01108604  0.49691858     0.04300
N517        N  0.30968929  0.00029556  0.53194815     0.66810
H518        H  0.26054683  0.99924779  0.99154753     0.15710
H519        H  0.36239393  0.04622975  0.93533457     0.15420
N520        N  0.31073437  0.05425280  0.89685730     0.74510
O521        O  0.32499176  0.01651874  0.55233169    -0.38940
O522        O  0.29020405  0.47730201  0.54312066    -0.38880
O523        O  0.28702878  0.07178699  0.88774094    -0.39580
O524        O  0.33612654  0.05427184  0.87800931    -0.39650
C525        C  0.13752244  0.42556430  0.66088423    -0.11930
C526        C  0.14232686  0.44741644  0.68602658     0.05070
C527        C  0.11567054  0.46653553  0.69592711    -0.07220
C528        C  0.08589248  0.46439053  0.68002603    -0.07960
C529        C  0.08199738  0.44451211  0.65336066    -0.02510
C530        C  0.10789467  0.42418019  0.64398176     0.04300
N531        N  0.10550992  0.40377920  0.61627161     0.66810
H532        H  0.15736012  0.41004662  0.65366229     0.15710
H533        H  0.06640997  0.48065483  0.68669218     0.15420
N534        N  0.11928236  0.49108388  0.71925730     0.74510
O535        O  0.13088696  0.39727967  0.59937767    -0.38940
O536        O  0.07878176  0.38959543  0.61052436    -0.38880
O537        O  0.13501581  0.51741462  0.71031186    -0.39580
O538        O  0.10162492  0.48936765  0.74580582    -0.39650
C539        C  0.28265771  0.43135379  0.66398104    -0.11930
C540        C  0.26382557  0.45946264  0.66706530     0.05070
C541        C  0.27315019  0.48926285  0.64847195    -0.07220
C542        C  0.30222645  0.49046117  0.62879492    -0.07960
C543        C  0.32179891  0.46276910  0.62658788    -0.02510
C544        C  0.31173674  0.43246550  0.64400187     0.04300
N545        N  0.33100721  0.40319146  0.64307993     0.66810
H546        H  0.27510845  0.40863772  0.67822523     0.15710
H547        H  0.31042522  0.01372207  0.61607913     0.15420
N548        N  0.25398567  0.01855604  0.64944023     0.74510
O549        O  0.31767456  0.37513577  0.64987409    -0.38940
O550        O  0.36165660  0.40507986  0.63805089    -0.38880
O551        O  0.23801878  0.02478387  0.67562793    -0.39580
O552        O  0.25486455  0.03965801  0.62464919    -0.39650
C553        C  0.23180561  0.45428207  0.80357151    -0.11930
C554        C  0.21423191  0.47370825  0.78027783     0.05070
C555        C  0.19900233  0.00240529  0.79038507    -0.07220
C556        C  0.20043079  0.01006193  0.82382716    -0.07960
C557        C  0.21762380  0.99053697  0.84727774    -0.02510
C558        C  0.23358114  0.46216864  0.83711722     0.04300
N559        N  0.25051638  0.44056127  0.86049496     0.66810
H560        H  0.24328282  0.43222501  0.79577139     0.15710
H561        H  0.18896082  0.03220225  0.83145540     0.15420
N562        N  0.18340563  0.02482452  0.76679446     0.74510
O563        O  0.23986929  0.43527521  0.89039951    -0.38940
O564        O  0.27412615  0.42392220  0.85042723    -0.38880
O565        O  0.15938185  0.04130039  0.77616230    -0.39580
O566        O  0.19654730  0.03192364  0.73813577    -0.39650
C567        C  0.38600277  0.13579956  0.56541102    -0.11930
C568        C  0.38066359  0.10908042  0.58961261     0.05070
C569        C  0.35588208  0.11162857  0.61489226    -0.07220
C570        C  0.33733881  0.14038148  0.61501967    -0.07960
C571        C  0.34309308  0.16669746  0.59075106    -0.02510
C572        C  0.36726173  0.16409907  0.56520935     0.04300
N573        N  0.37266329  0.18961583  0.53853226     0.66810
H574        H  0.40458768  0.13451222  0.54567420     0.15710
H575        H  0.31891026  0.14259521  0.63476184     0.15420
N576        N  0.34882217  0.08556135  0.64033179     0.74510
O577        O  0.40070765  0.19418893  0.52455237    -0.38940
O578        O  0.34883441  0.20504352  0.52626661    -0.38880
O579        O  0.36988671  0.07816232  0.66180435    -0.39580
O580        O  0.31959279  0.07553135  0.64599014    -0.39650
C581        C  0.37027809  0.33974463  0.56755468    -0.11930
C582        C  0.39489866  0.34396222  0.59077694     0.05070
C583        C  0.39938061  0.31816463  0.61587318    -0.07220
C584        C  0.37789886  0.29033345  0.61799858    -0.07960
C585        C  0.35253968  0.28725545  0.59525975    -0.02510
C586        C  0.34991764  0.31188058  0.56890966     0.04300
N587        N  0.32879483  0.30793278  0.54150932     0.66810
H588        H  0.36751035  0.35783321  0.54666297     0.15710
H589        H  0.38090432  0.27103948  0.63771374     0.15420
N590        N  0.42540179  0.31923883  0.63896581     0.74510
O591        O  0.31516475  0.33274782  0.52773795    -0.38940
O592        O  0.32951806  0.28168431  0.52665729    -0.38880
O593        O  0.42873952  0.34351829  0.65643019    -0.39580
O594        O  0.44203813  0.29390641  0.64545367    -0.39650
C595        C  0.03021633  0.14174929  0.50499316    -0.11930
C596        C  0.02889102  0.12469737  0.53687004     0.05070
C597        C  0.04834567  0.13622123  0.56229968    -0.07220
C598        C  0.07013078  0.16262520  0.55478540    -0.07960
C599        C  0.07249972  0.17908617  0.52286674    -0.02510
C600        C  0.05171553  0.16913997  0.99759546     0.04300
N601        N  0.05266797  0.18564054  0.96444775     0.66810
H602        H  0.51563436  0.13271041  0.98537311     0.15710
H603        H  0.08438762  0.17146897  0.57471579     0.15420
N604        N  0.04545936  0.12210751  0.59625076     0.74510
O605        O  0.02843806  0.18345749  0.94590030    -0.38940
O606        O  0.07840649  0.20042993  0.95256354    -0.38880
O607        O  0.07045099  0.11947715  0.61389483    -0.39580
O608        O  0.01748661  0.11659916  0.61002377    -0.39650
C609        C  0.04895873  0.33560896  0.56254909    -0.11930
C610        C  0.04664844  0.35921139  0.53514234     0.05070
C611        C  0.06128050  0.35231290  0.00386929    -0.07220
C612        C  0.07615063  0.32183368  0.00065996    -0.07960
C613        C  0.07787797  0.29861990  0.52812482    -0.02510
C614        C  0.06445577  0.30566410  0.55958791     0.04300
N615        N  0.06648326  0.28301218  0.58886149     0.66810
H616        H  0.03814802  0.34006608  0.58678030     0.15710
H617        H  0.08740434  0.31661929  0.97680871     0.15420
N618        N  0.06231275  0.37596517  0.97546847     0.74510
O619        O  0.06842298  0.29381154  0.61748143    -0.38940
O620        O  0.06327322  0.25235027  0.58679628    -0.38880
O621        O  0.07746375  0.40309899  0.97707025    -0.39580
O622        O  0.05471704  0.36709046  0.94716240    -0.39650
C623        C  0.20001379  0.25894405  0.54066968    -0.11930
C624        C  0.17739565  0.23379276  0.55152952     0.05070
C625        C  0.18750380  0.20857615  0.57504775    -0.07220
C626        C  0.21992568  0.20884997  0.58598576    -0.07960
C627        C  0.24272012  0.23412378  0.57494528    -0.02510
C628        C  0.23186586  0.25977333  0.55232272     0.04300
N629        N  0.25268906  0.28666733  0.53967122     0.66810
H630        H  0.19303916  0.27836015  0.52246425     0.15710
H631        H  0.22709735  0.18946090  0.60409329     0.15420
N632        N  0.16506236  0.18340395  0.58932211     0.74510
O633        O  0.26357041  0.28696953  0.50980727    -0.38940
O634        O  0.24992649  0.31374527  0.55280874    -0.38880
O635        O  0.17413310  0.15397026  0.59345155    -0.39580
O636        O  0.13788775  0.19117807  0.60201167    -0.39650
C637        C  0.09577687  0.76808741  0.52441090     0.03470
C638        C  0.12779516  0.76582512  0.03558959    -0.12680
C639        C  0.14362922  0.73545137  0.03818459     0.00970
C640        C  0.12654934  0.70725901  0.02917018    -0.11210
C641        C  0.09370861  0.70911836  0.51953965     0.03460
C642        C  0.07892609  0.73983143  0.51596918    -0.10630
H643        H  0.13969497  0.78763333  0.04393443     0.09050
H644        H  0.13789187  0.68344295  0.03166387     0.06580
H645        H  0.05320901  0.74125991  0.51027140     0.06430
C646        C  0.32615673  0.69803601  0.09393798     0.03470
C647        C  0.29285027  0.70073448  0.08702484    -0.12680
C648        C  0.27766454  0.73160237  0.08558701     0.00970
C649        C  0.29673023  0.75951919  0.09240797    -0.11210
C650        C  0.33073685  0.75726740  0.09725444     0.03460
C651        C  0.34484384  0.72626215  0.09908021    -0.10630
H652        H  0.27937108  0.67893952  0.08088951     0.09050
H653        H  0.28569707  0.78333479  0.09276628     0.06580
H654        H  0.37101586  0.72422124  0.10209847     0.06430
C655        C  0.17566702  0.95132687  0.19982690     0.03470
C656        C  0.17985320  0.95620843  0.23390011    -0.12680
C657        C  0.21098216  0.96322364  0.24584199     0.00970
C658        C  0.23856779  0.96269943  0.22416261    -0.11210
C659        C  0.23494367  0.95714034  0.19033526     0.03460
C660        C  0.20363580  0.95186559  0.17824517    -0.10630
H661        H  0.15892643  0.95526806  0.25123977     0.09050
H662        H  0.26264724  0.96821060  0.23316573     0.06580
H663        H  0.20114631  0.94917376  0.15174265     0.06430
C664        C  0.25002306  0.51992775  0.42821118     0.03470
C665        C  0.24910439  0.50855400  0.39588566    -0.12680
C666        C  0.21895744  0.50128699  0.38175775     0.00970
C667        C  0.18971309  0.50420093  0.40062902    -0.11210
C668        C  0.19052690  0.51433689  0.43320091     0.03460
C669        C  0.22030885  0.52362105  0.44613414    -0.10630
H670        H  0.27168330  0.50465027  0.38196134     0.09050
H671        H  0.16651428  0.49717471  0.39054490     0.06580
H672        H  0.22029877  0.53201664  0.47117277     0.06430
C673        C  0.00918645  0.62349437  0.26900803     0.03470
C674        C  0.00109347  0.65659934  0.27236806    -0.12680
C675        C  0.99553303  0.66816288  0.30421116     0.00970
C676        C  0.99984772  0.64676520  0.33278576    -0.11210
C677        C  0.00785947  0.61376109  0.32978190     0.03460
C678        C  0.01249691  0.60230415  0.29797251    -0.10630
H679        H  0.99729281  0.67284984  0.25022874     0.09050
H680        H  0.99492258  0.65521628  0.35744309     0.06580
H681        H  0.01629784  0.57627213  0.29582446     0.06430
C682        C  0.43152531  0.84201655  0.35738476     0.03470
C683        C  0.44104882  0.80963862  0.35296255    -0.12680
C684        C  0.44726419  0.79941755  0.32062975     0.00970
C685        C  0.44204735  0.82147092  0.29267954    -0.11210
C686        C  0.43181925  0.85368432  0.29693515     0.03460
C687        C  0.42662362  0.86371128  0.32930408    -0.10630
H688        H  0.44519571  0.79294330  0.37467817     0.09050
H689        H  0.44691159  0.81391388  0.26765776     0.06580
H690        H  0.42009503  0.88895796  0.33266028     0.06430
O691        O  0.02462984  0.91156620  0.01600299    -0.86150
O692        O  0.42960144  0.96648422  0.16837023    -0.86320
O693        O  0.03142966  0.92974353  0.12959753    -0.87990
O694        O  0.44230102  0.87972555  0.09946918    -0.86740
O695        O  0.39978131  0.89835518  0.06832971    -0.86330
O696        O  0.05438756  0.98142132  0.11757137    -0.87700
O697        O  0.45900857  0.92092631  0.15660921    -0.86180
O698        O  0.01430206  0.89086325  0.07001949    -0.85770
Zr699      Zr  0.48028321  0.92799123  0.09939921     2.84310
O700        O  0.42854395  0.95121752  0.09887883    -1.07740
O701        O  0.01637153  0.96092592  0.06367419    -1.08470
C702        C  0.02750391  0.88936563  0.04048596     1.06960
C703        C  0.44139386  0.93774353  0.17609365     1.06900
C704        C  0.05418547  0.95194028  0.13180532     1.09880
C705        C  0.41395440  0.87587842  0.08644902     1.07660
H706        H  0.49106318  0.98032280  0.14089330     0.33220
O707        O  0.48310146  0.98117134  0.11841685    -1.28700
H708        H  0.46050166  0.90867388  0.03733199     0.32890
O709        O  0.46155507  0.93065788  0.04478496    -1.30370
O710        O  0.40218825  0.55661997  0.10982117    -0.86150
O711        O  0.49780982  0.00141522  0.45776733    -0.87640
O712        O  0.01445903  0.54456883  0.13226523    -0.86220
O713        O  0.36108614  0.95440266  0.08267177    -0.86270
O714        O  0.41443300  0.92146871  0.99464961    -0.85980
O715        O  0.06705654  0.51341008  0.04434605    -0.85790
O716        O  0.48443957  0.58717550  0.02768576    -0.86160
O717        O  0.39429140  0.53740133  0.99819310    -0.85620
O718        O  0.02655187  0.57066879  0.06108723    -0.86690
O719        O  0.37314779  0.98491392  0.00945766    -0.85850
O720        O  0.46123230  0.53957804  0.15258544    -0.86240
O721        O  0.05339844  0.98299319  0.00057570    -0.85970
O722        O  0.46665067  0.93121698  0.47309318    -0.85620
O723        O  0.37430519  0.98636911  0.12544308    -0.86020
O724        O  0.41358270  0.57720684  0.05595009    -0.86320
O725        O  0.46668736  0.54570086  0.46954589    -0.87660
Zr726      Zr  0.43098068  0.00423789  0.11754598     2.83100
Zr727      Zr  0.49693028  0.96434812  0.00920098     2.83500
Zr728      Zr  0.01845081  0.51397939  0.08206037     2.84090
Zr729      Zr  0.40955938  0.95336297  0.04453033     2.83360
Zr730      Zr  0.44671697  0.53926713  0.02710298     2.84220
O731        O  0.44438693  0.98639249  0.00791431    -1.08230
O732        O  0.46642350  0.53699530  0.08150960    -1.07730
C733        C  0.39994512  0.57885910  0.08522092     1.06930
C734        C  0.48467503  0.52947870  0.44982019     1.09550
C735        C  0.49090182  0.55105544  0.15294514     1.07100
C736        C  0.35449357  0.96804859  0.11024957     1.07460
C737        C  0.43796504  0.91754939  0.47287954     1.07050
C738        C  0.07325699  0.00100475  0.01605815     1.06600
C739        C  0.01175795  0.59224090  0.04225396     1.07020
C740        C  0.37176166  0.51474336  0.99656001     1.06540
H741        H  0.01346693  0.53103128  0.01311815     0.33210
O742        O  0.49898481  0.51711888  0.02780556    -1.29330
H743        H  0.38975558  0.51521350  0.06325062     0.33240
O744        O  0.41145295  0.00629941  0.06317506    -1.30710
C745        C  0.41217357  0.89449591  0.21185633    -0.11930
C746        C  0.43402833  0.92164001  0.20962350     0.05070
C747        C  0.45300545  0.92811068  0.23736292    -0.07220
C748        C  0.45048365  0.90609564  0.26613215    -0.07960
C749        C  0.42978909  0.87798279  0.26771621    -0.02510
C750        C  0.40957356  0.87258291  0.24061538     0.04300
N751        N  0.38668442  0.84508143  0.24170375     0.66810
H752        H  0.39773675  0.88981251  0.19047814     0.15710
H753        H  0.46575411  0.91016503  0.28710881     0.15420
N754        N  0.47609370  0.95550272  0.23619230     0.74510
O755        O  0.37807657  0.83342843  0.21492186    -0.38940
O756        O  0.37252468  0.83441587  0.26897618    -0.38880
O757        O  0.47125600  0.98166852  0.21828256    -0.39580
O758        O  0.00015592  0.95467235  0.25520464    -0.39650
C759        C  0.46197071  0.88026334  0.43335706    -0.11930
C760        C  0.43356416  0.89489116  0.44583575     0.05070
C761        C  0.40324827  0.88828606  0.43122821    -0.07220
C762        C  0.40260037  0.86835703  0.40393222    -0.07960
C763        C  0.43147810  0.85538617  0.39068866    -0.02510
C764        C  0.46134014  0.86113066  0.40597214     0.04300
N765        N  0.49175576  0.85050540  0.39203773     0.66810
H766        H  0.48542608  0.88443489  0.44438046     0.15710
H767        H  0.37977226  0.86471528  0.39154101     0.15420
N768        N  0.37353159  0.90325778  0.44185493     0.74510
O769        O  0.01408192  0.87150088  0.38305550    -0.38940
O770        O  0.49843335  0.82033087  0.39420576    -0.38880
O771        O  0.37285901  0.93395872  0.44433006    -0.39580
O772        O  0.34686698  0.88691775  0.44323209    -0.39650
C773        C  0.48157800  0.61559391  0.21588101    -0.11930
C774        C  0.00867222  0.60936445  0.23583596     0.05070
C775        C  0.03217687  0.58662512  0.22583959    -0.07220
C776        C  0.02635149  0.56864861  0.19789637    -0.07960
C777        C  0.49815304  0.57351988  0.17923755    -0.02510
C778        C  0.47629694  0.59855110  0.18731986     0.04300
N779        N  0.44901420  0.60731323  0.16677494     0.66810
H780        H  0.46379719  0.63332121  0.22315559     0.15710
H781        H  0.04358354  0.55020161  0.19106418     0.15420
N782        N  0.06179600  0.58144424  0.24379181     0.74510
O783        O  0.42443370  0.62090902  0.17921454    -0.38940
O784        O  0.45141757  0.60622310  0.13539185    -0.38880
O785        O  0.07538280  0.55386879  0.24459979    -0.39580
O786        O  0.07601477  0.60509773  0.25647919    -0.39650
C787        C  0.02256383  0.54986855  0.40229692    -0.11930
C788        C  0.49045056  0.54549117  0.41576643     0.05070
C789        C  0.46460931  0.56179589  0.39941915    -0.07220
C790        C  0.47164709  0.58398684  0.37178945    -0.07960
C791        C  0.00373869  0.58987606  0.35928273    -0.02510
C792        C  0.02974255  0.57203581  0.37403607     0.04300
N793        N  0.06327164  0.57688640  0.36186252     0.66810
H794        H  0.04232205  0.53753927  0.41513801     0.15710
H795        H  0.45171446  0.59663906  0.35953241     0.15420
N796        N  0.43106498  0.55607573  0.41062178     0.74510
O797        O  0.08437838  0.55565904  0.36960037    -0.38940
O798        O  0.07258508  0.60320926  0.34532477    -0.38880
O799        O  0.41071060  0.57889805  0.40717242    -0.39580
O800        O  0.42097584  0.52740130  0.42065811    -0.39650
C801        C  0.44301536  0.73851937  0.33120494    -0.11930
C802        C  0.46041919  0.76613091  0.31625465     0.05070
C803        C  0.48941489  0.76139930  0.29690554    -0.07220
C804        C  0.99970549  0.72917392  0.29257344    -0.07960
C805        C  0.48234208  0.70159179  0.30768510    -0.02510
C806        C  0.45328080  0.70636916  0.32685810     0.04300
N807        N  0.43322323  0.67900025  0.34093997     0.66810
H808        H  0.42053262  0.74203835  0.34548536     0.15690
H809        H  0.02219031  0.72557132  0.27833393     0.15420
N810        N  0.00943173  0.78879430  0.28276572     0.74510
O811        O  0.41769930  0.68090643  0.36848006    -0.38940
O812        O  0.42780926  0.65456568  0.32413171    -0.38880
O813        O  0.01412678  0.81366870  0.29915244    -0.39580
O814        O  0.02567479  0.78652225  0.25570368    -0.39650
C815        C  0.12850639  0.98317458  0.50129105    -0.11930
C816        C  0.10530385  0.50797637  0.49902235     0.05070
C817        C  0.11040603  0.53543068  0.47537964    -0.07220
C818        C  0.13829750  0.53654773  0.45377676    -0.07960
C819        C  0.16106218  0.51130848  0.45555706    -0.02510
C820        C  0.15647717  0.98441689  0.47992511     0.04300
N821        N  0.17929962  0.95788015  0.48286954     0.66810
H822        H  0.12392564  0.96185145  0.01881881     0.15710
H823        H  0.14253962  0.55736072  0.43555558     0.15420
N824        N  0.08751185  0.56190338  0.47256278     0.74510
O825        O  0.18206917  0.94148163  0.51061530    -0.38940
O826        O  0.19439369  0.94858717  0.45736512    -0.38880
O827        O  0.07075284  0.56935288  0.99778147    -0.39580
O828        O  0.08669131  0.58039784  0.44587054    -0.39650
C829        C  0.28235494  0.51042402  0.47903267    -0.11930
C830        C  0.28146839  0.52349048  0.44562192     0.05070
C831        C  0.31054922  0.53798106  0.42999892    -0.07220
C832        C  0.33992701  0.53670882  0.44756980    -0.07960
C833        C  0.34054243  0.52264211  0.48053856    -0.02510
C834        C  0.31097060  0.51108672  0.99691814     0.04300
N835        N  0.30969004  0.50029631  0.03194783     0.66810
H836        H  0.26054733  0.49924854  0.49154826     0.15710
H837        H  0.36239445  0.54622928  0.43533442     0.15420
N838        N  0.31073445  0.55425271  0.39685748     0.74510
O839        O  0.32499405  0.51651870  0.05233091    -0.38940
O840        O  0.29020443  0.97729989  0.04311941    -0.38880
O841        O  0.28702871  0.57178677  0.38774126    -0.39580
O842        O  0.33612634  0.55427156  0.37800912    -0.39650
C843        C  0.13752249  0.92556431  0.16088412    -0.11930
C844        C  0.14232689  0.94741644  0.18602648     0.05070
C845        C  0.11567059  0.96653553  0.19592704    -0.07220
C846        C  0.08589252  0.96439049  0.18002604    -0.07960
C847        C  0.08199742  0.94451202  0.15336072    -0.02510
C848        C  0.10789470  0.92418015  0.14398172     0.04300
N849        N  0.10550991  0.90377918  0.11627156     0.66810
H850        H  0.15736017  0.91004666  0.15366214     0.15710
H851        H  0.06641001  0.98065477  0.18669220     0.15420
N852        N  0.11928242  0.99108388  0.21925723     0.74510
O853        O  0.13088692  0.89727964  0.09937758    -0.38940
O854        O  0.07878174  0.88959541  0.11052434    -0.38880
O855        O  0.13501581  0.01741465  0.21031175    -0.39580
O856        O  0.10162498  0.98936764  0.24580574    -0.39650
C857        C  0.28265731  0.93135357  0.16398127    -0.11930
C858        C  0.26382531  0.95946255  0.16706545     0.05070
C859        C  0.27315002  0.98926281  0.14847224    -0.07220
C860        C  0.30222628  0.99046105  0.12879544    -0.07960
C861        C  0.32179848  0.96276886  0.12658855    -0.02510
C862        C  0.31173637  0.93246526  0.14400229     0.04300
N863        N  0.33100700  0.90319131  0.14308023     0.66810
H864        H  0.27510795  0.90863749  0.17822539     0.15710
H865        H  0.31042466  0.51372122  0.11607894     0.15420
N866        N  0.25398543  0.51855585  0.14944025     0.74510
O867        O  0.31767444  0.87513553  0.14987398    -0.38940
O868        O  0.36165639  0.90507985  0.13805119    -0.38880
O869        O  0.23801865  0.52478392  0.17562793    -0.39580
O870        O  0.25486455  0.53965779  0.12464917    -0.39650
C871        C  0.23180557  0.95428208  0.30357141    -0.11930
C872        C  0.21423186  0.97370825  0.28027773     0.05070
C873        C  0.19900231  0.50240533  0.29038521    -0.07220
C874        C  0.20043079  0.51006197  0.32382731    -0.07960
C875        C  0.21762385  0.49053702  0.34727788    -0.02510
C876        C  0.23358107  0.96216866  0.33711712     0.04300
N877        N  0.25051631  0.94056131  0.36049487     0.66810
H878        H  0.24328280  0.93222503  0.29577130     0.15710
H879        H  0.18896082  0.53220228  0.33145554     0.15420
N880        N  0.18340561  0.52482454  0.26679458     0.74510
O881        O  0.23986923  0.93527529  0.39039943    -0.38940
O882        O  0.27412608  0.92392223  0.35042716    -0.38880
O883        O  0.15938181  0.54130040  0.27616241    -0.39580
O884        O  0.19654726  0.53192364  0.23813588    -0.39650
C885        C  0.38600290  0.63580074  0.06541146    -0.11930
C886        C  0.38066400  0.60908191  0.08961330     0.05070
C887        C  0.35588207  0.61162946  0.11489259    -0.07220
C888        C  0.33733844  0.64038204  0.11501974    -0.07960
C889        C  0.34309279  0.66669800  0.09075109    -0.02510
C890        C  0.36726152  0.66409981  0.06520945     0.04300
N891        N  0.37266311  0.68961646  0.03853228     0.66810
H892        H  0.40458792  0.63451353  0.04567471     0.15710
H893        H  0.31890966  0.64259560  0.13476172     0.15420
N894        N  0.34882214  0.58556196  0.14033189     0.74510
O895        O  0.40070746  0.69418936  0.02455232    -0.38940
O896        O  0.34883422  0.70504396  0.02626642    -0.38880
O897        O  0.36988657  0.57816277  0.16180453    -0.39580
O898        O  0.31959285  0.57553150  0.14598980    -0.39650
C899        C  0.37027803  0.83974508  0.06755472    -0.11930
C900        C  0.39489852  0.84396281  0.09077700     0.05070
C901        C  0.39938070  0.81816505  0.11587310    -0.07220
C902        C  0.37789900  0.79033380  0.11799849    -0.07960
C903        C  0.35253975  0.78725577  0.09525976    -0.02510
C904        C  0.34991770  0.81188090  0.06890968     0.04300
N905        N  0.32879485  0.80793304  0.04150940     0.66810
H906        H  0.36751022  0.85783369  0.04666306     0.15710
H907        H  0.38090454  0.77103979  0.13771360     0.15420
N908        N  0.42540199  0.81923909  0.13896562     0.74510
O909        O  0.31516465  0.83274802  0.02773809    -0.38940
O910        O  0.32951803  0.78168453  0.02665743    -0.38880
O911        O  0.42873973  0.84351839  0.15643021    -0.39580
O912        O  0.44203807  0.79390649  0.14545354    -0.39650
C913        C  0.03021627  0.64174923  0.00499317    -0.11930
C914        C  0.02889090  0.62469735  0.03687008     0.05070
C915        C  0.04834563  0.63622118  0.06229969    -0.07220
C916        C  0.07013078  0.66262512  0.05478539    -0.07960
C917        C  0.07249972  0.67908610  0.02286674    -0.02510
C918        C  0.05171542  0.66913983  0.49759551     0.04300
N919        N  0.05266791  0.68564039  0.46444780     0.66810
H920        H  0.51563462  0.63271050  0.48537300     0.15710
H921        H  0.08438764  0.67146888  0.07471577     0.15420
N922        N  0.04545935  0.62210746  0.09625077     0.74510
O923        O  0.02843800  0.68345740  0.44590034    -0.38940
O924        O  0.07840643  0.70042982  0.45256363    -0.38880
O925        O  0.07045100  0.61947716  0.11389482    -0.39580
O926        O  0.01748662  0.61659916  0.11002382    -0.39650
C927        C  0.04895879  0.83560885  0.06254903    -0.11930
C928        C  0.04664851  0.85921124  0.03514226     0.05070
C929        C  0.06128051  0.85231288  0.50386926    -0.07220
C930        C  0.07615063  0.82183366  0.50065993    -0.07960
C931        C  0.07787801  0.79861982  0.02812477    -0.02510
C932        C  0.06445582  0.80566402  0.05958787     0.04300
N933        N  0.06648328  0.78301212  0.08886146     0.66810
H934        H  0.03814807  0.84006597  0.08678024     0.15710
H935        H  0.08740435  0.81661927  0.47680868     0.15420
N936        N  0.06231275  0.87596516  0.47546844     0.74510
O937        O  0.06842295  0.79381150  0.11748140    -0.38940
O938        O  0.06327321  0.75235021  0.08679627    -0.38880
O939        O  0.07746373  0.90309900  0.47707024    -0.39580
O940        O  0.05471702  0.86709047  0.44716237    -0.39650
C941        C  0.20001377  0.75894408  0.04066970    -0.11930
C942        C  0.17739566  0.73379276  0.05152953     0.05070
C943        C  0.18750382  0.70857615  0.07504776    -0.07220
C944        C  0.21992569  0.70885002  0.08598578    -0.07960
C945        C  0.24272008  0.73412389  0.07494534    -0.02510
C946        C  0.23186582  0.75977339  0.05232276     0.04300
N947        N  0.25268902  0.78666741  0.03967129     0.66810
H948        H  0.19303914  0.77836017  0.02246426     0.15710
H949        H  0.22709737  0.68946095  0.10409331     0.15420
N950        N  0.16506239  0.68340393  0.08932210     0.74510
O951        O  0.26357040  0.78696963  0.00980735    -0.38940
O952        O  0.24992644  0.81374532  0.05280885    -0.38880
O953        O  0.17413314  0.65397025  0.09345152    -0.39580
O954        O  0.13788778  0.69117804  0.10201167    -0.39650
C955        C  0.09577691  0.76808736  0.02441087     0.03470
C956        C  0.12779512  0.76582516  0.53558961    -0.12680
C957        C  0.14362919  0.73545140  0.53818459     0.00970
C958        C  0.12654932  0.70725905  0.52917017    -0.11210
C959        C  0.09370862  0.70911830  0.01953966     0.03460
C960        C  0.07892612  0.73983138  0.01596917    -0.10630
H961        H  0.13969494  0.78763336  0.54393446     0.09050
H962        H  0.13789185  0.68344299  0.53166385     0.06580
H963        H  0.05320904  0.74125988  0.01027138     0.06430
C964        C  0.32615669  0.69803577  0.59393795     0.03470
C965        C  0.29285021  0.70073430  0.58702482    -0.12680
C966        C  0.27766449  0.73160223  0.58558700     0.00970
C967        C  0.29673015  0.75951899  0.59240801    -0.11210
C968        C  0.33073672  0.75726711  0.59725452     0.03460
C969        C  0.34484376  0.72626190  0.59908021    -0.10630
H970        H  0.27937100  0.67893936  0.58088949     0.09050
H971        H  0.28569702  0.78333462  0.59276633     0.06580
H972        H  0.37101578  0.72422101  0.60209847     0.06430
C973        C  0.17566715  0.95132688  0.69982684     0.03470
C974        C  0.17985334  0.95620844  0.73390004    -0.12680
C975        C  0.21098231  0.96322364  0.74584191     0.00970
C976        C  0.23856799  0.96269941  0.72416248    -0.11210
C977        C  0.23494399  0.95714034  0.69033505     0.03460
C978        C  0.20363599  0.95186558  0.67824507    -0.10630
H979        H  0.15892657  0.95526809  0.75123971     0.09050
H980        H  0.26264741  0.96821060  0.73316565     0.06580
H981        H  0.20114644  0.94917377  0.65174255     0.06430
C982        C  0.25002297  0.51992778  0.92821106     0.03470
C983        C  0.24910434  0.50855399  0.89588559    -0.12680
C984        C  0.21895741  0.50128697  0.88175770     0.00970
C985        C  0.18971306  0.50420091  0.90062898    -0.11210
C986        C  0.19052687  0.51433687  0.93320087     0.03460
C987        C  0.22030880  0.52362108  0.94613406    -0.10630
H988        H  0.27168326  0.50465025  0.88196128     0.09050
H989        H  0.16651425  0.49717467  0.89054486     0.06580
H990        H  0.22029873  0.53201669  0.97117268     0.06430
C991        C  0.00918644  0.62349435  0.76900806     0.03470
C992        C  0.00109347  0.65659931  0.77236808    -0.12680
C993        C  0.99553303  0.66816285  0.80421117     0.00970
C994        C  0.99984771  0.64676517  0.83278578    -0.11210
C995        C  0.00785946  0.61376105  0.82978192     0.03460
C996        C  0.01249689  0.60230412  0.79797253    -0.10630
H997        H  0.99729281  0.67284981  0.75022875     0.09050
H998        H  0.99492257  0.65521626  0.85744310     0.06580
H999        H  0.01629781  0.57627209  0.79582448     0.06430
C1000       C  0.43152548  0.84201676  0.85738512     0.03470
C1001       C  0.44104893  0.80963876  0.85296284    -0.12680
C1002       C  0.44726426  0.79941763  0.82062999     0.00970
C1003       C  0.44204737  0.82147094  0.79267979    -0.11210
C1004       C  0.43181923  0.85368429  0.79693543     0.03460
C1005       C  0.42662368  0.86371136  0.82930435    -0.10630
H1006       H  0.44519579  0.79294342  0.87467844     0.09050
H1007       H  0.44691160  0.81391390  0.76765800     0.06580
H1008       H  0.42009507  0.88895805  0.83266047     0.06430
O1009       O  0.02462973  0.91156649  0.51600312    -0.86150
O1010       O  0.42960380  0.96648370  0.66837131    -0.86320
O1011       O  0.03142952  0.92974369  0.62959745    -0.87990
O1012       O  0.44230182  0.87972405  0.59946932    -0.86740
O1013       O  0.39978279  0.89835332  0.56832907    -0.86330
O1014       O  0.05438746  0.98142142  0.61757118    -0.87700
O1015       O  0.45900923  0.92092510  0.65660947    -0.86180
O1016       O  0.01430193  0.89086351  0.57001959    -0.85770
Zr1017     Zr  0.48028382  0.92799000  0.59939937     2.84310
O1018       O  0.42854399  0.95121527  0.59888022    -1.07740
O1019       O  0.01637159  0.96092597  0.56367423    -1.08470
C1020       C  0.02750381  0.88936587  0.54048606     1.06960
C1021       C  0.44139516  0.93774262  0.67609418     1.06900
C1022       C  0.05418539  0.95194039  0.63180520     1.09880
C1023       C  0.41395536  0.87587687  0.58644888     1.07660
H1024       H  0.49106653  0.98032124  0.64089660     0.33220
O1025       O  0.48310496  0.98116984  0.61842073    -1.28700
H1026       H  0.46050374  0.90866941  0.53733068     0.32890
O1027       O  0.46155711  0.93065299  0.54478359    -1.30370
O1028       O  0.40218817  0.55661914  0.60982090    -0.86150
O1029       O  0.49780897  0.00141587  0.95776813    -0.87640
O1030       O  0.01445913  0.54456886  0.63226529    -0.86220
O1031       O  0.36108794  0.95440320  0.58267047    -0.86270
O1032       O  0.41443426  0.92146616  0.49464953    -0.85980
O1033       O  0.06705656  0.51341011  0.54434604    -0.85790
O1034       O  0.48444034  0.58717538  0.52768524    -0.86160
O1035       O  0.39429181  0.53740128  0.49819374    -0.85620
O1036       O  0.02655202  0.57066879  0.56108721    -0.86690
O1037       O  0.37314875  0.98491379  0.50946033    -0.85850
O1038       O  0.46123279  0.53957772  0.65258595    -0.86240
O1039       O  0.05339827  0.98299318  0.50057577    -0.85970
O1040       O  0.46665014  0.93121774  0.97309408    -0.85620
O1041       O  0.37430681  0.98637035  0.62544140    -0.86020
O1042       O  0.41358251  0.57720602  0.55594974    -0.86320
O1043       O  0.46668650  0.54570075  0.96954604    -0.87660
Zr1044     Zr  0.43098379  0.00423666  0.61754724     2.83100
Zr1045     Zr  0.49693097  0.96434718  0.50920025     2.83500
Zr1046     Zr  0.01845091  0.51397939  0.58206044     2.84090
Zr1047     Zr  0.40956207  0.95336026  0.54452972     2.83360
Zr1048     Zr  0.44671802  0.53926701  0.52710273     2.84220
O1049       O  0.44438764  0.98639179  0.50791193    -1.08230
O1050       O  0.46642400  0.53699596  0.58150992    -1.07730
C1051       C  0.39994488  0.57885828  0.58522059     1.06930
C1052       C  0.48467457  0.52947880  0.94982041     1.09550
C1053       C  0.49090216  0.55105543  0.65294538     1.07100
C1054       C  0.35449501  0.96804963  0.61024810     1.07460
C1055       C  0.43796425  0.91755072  0.97288016     1.07050
C1056       C  0.07325686  0.00100470  0.51605817     1.06600
C1057       C  0.01175817  0.59224089  0.54225386     1.07020
C1058       C  0.37176201  0.51474333  0.49656064     1.06540
H1059       H  0.01346754  0.53103141  0.51311784     0.33210
O1060       O  0.49898632  0.51711927  0.52780473    -1.29330
H1061       H  0.38975484  0.51521355  0.56325052     0.33240
O1062       O  0.41144859  0.00630076  0.56317505    -1.30710
C1063       C  0.41217408  0.89449555  0.71185653    -0.11930
C1064       C  0.43402916  0.92163934  0.70962379     0.05070
C1065       C  0.45300586  0.92811036  0.73736331    -0.07220
C1066       C  0.45048381  0.90609546  0.76613258    -0.07960
C1067       C  0.42978915  0.87798268  0.76771653    -0.02510
C1068       C  0.40957371  0.87258275  0.74061563     0.04300
N1069       N  0.38668445  0.84508136  0.74170391     0.66810
H1070       H  0.39773735  0.88981224  0.69047823     0.15710
H1071       H  0.46575414  0.91016492  0.78710932     0.15420
N1072       N  0.47609402  0.95550249  0.73619264     0.74510
O1073       O  0.37807660  0.83342843  0.71492198    -0.38940
O1074       O  0.37252462  0.83441582  0.76897630    -0.38880
O1075       O  0.47125639  0.98166818  0.71828268    -0.39580
O1076       O  0.00015583  0.95467237  0.75520452    -0.39650
C1077       C  0.46197045  0.88026398  0.93335782    -0.11930
C1078       C  0.43356374  0.89489184  0.94583647     0.05070
C1079       C  0.40324806  0.88828647  0.93122868    -0.07220
C1080       C  0.40260040  0.86835744  0.90393261    -0.07960
C1081       C  0.43147816  0.85538657  0.89068912    -0.02510
C1082       C  0.46134008  0.86113114  0.90597282     0.04300
N1083       N  0.49175573  0.85050577  0.89203852     0.66810
H1084       H  0.48542577  0.88443567  0.94438126     0.15710
H1085       H  0.37977236  0.86471568  0.89154128     0.15420
N1086       N  0.37353128  0.90325812  0.94185510     0.74510
O1087       O  0.01408195  0.87150062  0.88305545    -0.38940
O1088       O  0.49843307  0.82033118  0.89420599    -0.38880
O1089       O  0.37285856  0.93395909  0.94432995    -0.39580
O1090       O  0.34686672  0.88691803  0.94323199    -0.39650
C1091       C  0.48157800  0.61559398  0.71588105    -0.11930
C1092       C  0.00867220  0.60936444  0.73583600     0.05070
C1093       C  0.03217687  0.58662513  0.72583963    -0.07220
C1094       C  0.02635152  0.56864865  0.69789641    -0.07960
C1095       C  0.49815325  0.57352004  0.67923760    -0.02510
C1096       C  0.47629703  0.59855119  0.68731987     0.04300
N1097       N  0.44901425  0.60731319  0.66677495     0.66810
H1098       H  0.46379712  0.63332122  0.72315564     0.15710
H1099       H  0.04358357  0.55020165  0.69106422     0.15420
N1100       N  0.06179598  0.58144421  0.74379186     0.74510
O1101       O  0.42443372  0.62090898  0.67921453    -0.38940
O1102       O  0.45141757  0.60622294  0.63539187    -0.38880
O1103       O  0.07538278  0.55386876  0.74459980    -0.39580
O1104       O  0.07601479  0.60509770  0.75647920    -0.39650
C1105       C  0.02256376  0.54986856  0.90229703    -0.11930
C1106       C  0.49045035  0.54549136  0.91576667     0.05070
C1107       C  0.46460917  0.56179600  0.89941925    -0.07220
C1108       C  0.47164700  0.58398685  0.87178949    -0.07960
C1109       C  0.00373865  0.58987602  0.85928277    -0.02510
C1110       C  0.02974251  0.57203577  0.87403613     0.04300
N1111       N  0.06327160  0.57688634  0.86186256     0.66810
H1112       H  0.04232196  0.53753926  0.91513813     0.15710
H1113       H  0.45171438  0.59663902  0.85953236     0.15420
N1114       N  0.43106482  0.55607578  0.91062175     0.74510
O1115       O  0.08437833  0.55565896  0.86960038    -0.38940
O1116       O  0.07258504  0.60320918  0.84532480    -0.38880
O1117       O  0.41071044  0.57889808  0.90717241    -0.39580
O1118       O  0.42097571  0.52740132  0.92065803    -0.39650
C1119       C  0.44301538  0.73851943  0.83120500    -0.11930
C1120       C  0.46041923  0.76613097  0.81625478     0.05070
C1121       C  0.48941491  0.76139934  0.79690558    -0.07220
C1122       C  0.99970550  0.72917389  0.79257343    -0.07960
C1123       C  0.48234207  0.70159183  0.80768514    -0.02510
C1124       C  0.45328079  0.70636922  0.82685814     0.04300
N1125       N  0.43322321  0.67900032  0.84094002     0.66810
H1126       H  0.42053265  0.74203842  0.84548543     0.15690
H1127       H  0.02219033  0.72557129  0.77833392     0.15420
N1128       N  0.00943174  0.78879427  0.78276570     0.74510
O1129       O  0.41769930  0.68090651  0.86848011    -0.38940
O1130       O  0.42780922  0.65456575  0.82413176    -0.38880
O1131       O  0.01412678  0.81366868  0.79915243    -0.39580
O1132       O  0.02567482  0.78652222  0.75570368    -0.39650
C1133       C  0.12850629  0.98317426  0.00129084    -0.11930
C1134       C  0.10530384  0.50797637  0.99902233     0.05070
C1135       C  0.11040597  0.53543062  0.97537952    -0.07220
C1136       C  0.13829746  0.53654766  0.95377667    -0.07960
C1137       C  0.16106218  0.51130847  0.95555703    -0.02510
C1138       C  0.15647706  0.98441660  0.97992492     0.04300
N1139       N  0.17929940  0.95787975  0.98286917     0.66810
H1140       H  0.12392591  0.96185192  0.51881925     0.15710
H1141       H  0.14253956  0.55736061  0.93555542     0.15420
N1142       N  0.08751175  0.56190327  0.97256254     0.74510
O1143       O  0.18206888  0.94148103  0.01061483    -0.38940
O1144       O  0.19439353  0.94858695  0.95736470    -0.38880
O1145       O  0.07075315  0.56935306  0.49778182    -0.39580
O1146       O  0.08669135  0.58039777  0.94587031    -0.39650
C1147       C  0.28235476  0.51042397  0.97903248    -0.11930
C1148       C  0.28146824  0.52349051  0.94562176     0.05070
C1149       C  0.31054903  0.53798112  0.92999873    -0.07220
C1150       C  0.33992675  0.53670894  0.94756956    -0.07960
C1151       C  0.34054215  0.52264216  0.98053822    -0.02510
C1152       C  0.31097082  0.51108676  0.49691839     0.04300
N1153       N  0.30969020  0.50029640  0.53194809     0.66810
H1154       H  0.26054718  0.49924843  0.99154807     0.15710
H1155       H  0.36239420  0.54622941  0.93533420     0.15420
N1156       N  0.31073433  0.55425270  0.89685728     0.74510
O1157       O  0.32499503  0.51651819  0.55233105    -0.38940
O1158       O  0.29020434  0.97729983  0.54311993    -0.38880
O1159       O  0.28702868  0.57178688  0.88774106    -0.39580
O1160       O  0.33612631  0.55427159  0.87800904    -0.39650
C1161       C  0.13752248  0.92556431  0.66088415    -0.11930
C1162       C  0.14232692  0.94741645  0.68602649     0.05070
C1163       C  0.11567058  0.96653551  0.69592708    -0.07220
C1164       C  0.08589251  0.96439051  0.68002602    -0.07960
C1165       C  0.08199740  0.94451211  0.65336064    -0.02510
C1166       C  0.10789468  0.92418019  0.64398171     0.04300
N1167       N  0.10550992  0.90377921  0.61627156     0.66810
H1168       H  0.15736015  0.91004664  0.65366219     0.15710
H1169       H  0.06641000  0.98065479  0.68669218     0.15420
N1170       N  0.11928240  0.99108386  0.71925727     0.74510
O1171       O  0.13088695  0.89727969  0.59937760    -0.38940
O1172       O  0.07878176  0.88959544  0.61052433    -0.38880
O1173       O  0.13501585  0.01741460  0.71031183    -0.39580
O1174       O  0.10162494  0.98936764  0.74580578    -0.39650
C1175       C  0.28265806  0.93135409  0.66398057    -0.11930
C1176       C  0.26382583  0.95946283  0.66706504     0.05070
C1177       C  0.27315052  0.98926314  0.64847191    -0.07220
C1178       C  0.30222693  0.99046169  0.62879496    -0.07960
C1179       C  0.32179948  0.96276968  0.62658755    -0.02510
C1180       C  0.31173715  0.93246595  0.64400140     0.04300
N1181       N  0.33100752  0.90319186  0.64307940     0.66810
H1182       H  0.27510880  0.90863794  0.67822462     0.15710
H1183       H  0.31042475  0.51372142  0.61607877     0.15420
N1184       N  0.25398549  0.51855587  0.64944019     0.74510
O1185       O  0.31767478  0.87513620  0.64987360    -0.38940
O1186       O  0.36165694  0.90508020  0.63805065    -0.38880
O1187       O  0.23801871  0.52478387  0.67562789    -0.39580
O1188       O  0.25486451  0.53965781  0.62464911    -0.39650
C1189       C  0.23180564  0.95428204  0.80357141    -0.11930
C1190       C  0.21423196  0.97370823  0.78027771     0.05070
C1191       C  0.19900230  0.50240531  0.79038519    -0.07220
C1192       C  0.20043079  0.51006196  0.82382728    -0.07960
C1193       C  0.21762384  0.49053701  0.84727785    -0.02510
C1194       C  0.23358114  0.96216861  0.83711712     0.04300
N1195       N  0.25051639  0.94056126  0.86049487     0.66810
H1196       H  0.24328286  0.93222499  0.79577130     0.15710
H1197       H  0.18896083  0.53220228  0.83145552     0.15420
N1198       N  0.18340559  0.52482453  0.76679458     0.74510
O1199       O  0.23986933  0.93527522  0.89039943    -0.38940
O1200       O  0.27412614  0.92392217  0.85042714    -0.38880
O1201       O  0.15938180  0.54130039  0.77616242    -0.39580
O1202       O  0.19654724  0.53192364  0.73813587    -0.39650
C1203       C  0.38600281  0.63580027  0.56541127    -0.11930
C1204       C  0.38066379  0.60908129  0.58961300     0.05070
C1205       C  0.35588205  0.61162909  0.61489246    -0.07220
C1206       C  0.33733856  0.64038179  0.61501972    -0.07960
C1207       C  0.34309284  0.66669774  0.59075107    -0.02510
C1208       C  0.36726155  0.66409951  0.56520941     0.04300
N1209       N  0.37266312  0.68961622  0.53853228     0.66810
H1210       H  0.40458779  0.63451301  0.54567449     0.15710
H1211       H  0.31890989  0.64259543  0.63476179     0.15420
N1212       N  0.34882214  0.58556172  0.64033185     0.74510
O1213       O  0.40070747  0.69418922  0.52455235    -0.38940
O1214       O  0.34883423  0.70504379  0.52626652    -0.38880
O1215       O  0.36988660  0.57816264  0.66180449    -0.39580
O1216       O  0.31959281  0.57553141  0.64598991    -0.39650
C1217       C  0.37027824  0.83974436  0.56755481    -0.11930
C1218       C  0.39489889  0.84396178  0.59077705     0.05070
C1219       C  0.39938065  0.81816430  0.61587338    -0.07220
C1220       C  0.37789877  0.79033324  0.61799882    -0.07960
C1221       C  0.35253959  0.78725537  0.59525995    -0.02510
C1222       C  0.34991763  0.81188047  0.56890983     0.04300
N1223       N  0.32879480  0.80793275  0.54150948     0.66810
H1224       H  0.36751059  0.85783291  0.54666307     0.15710
H1225       H  0.38090412  0.77103927  0.63771401     0.15420
N1226       N  0.42540179  0.81923850  0.63896604     0.74510
O1227       O  0.31516479  0.83274784  0.52773812    -0.38940
O1228       O  0.32951802  0.78168432  0.52665736    -0.38880
O1229       O  0.42873965  0.84351807  0.65643026    -0.39580
O1230       O  0.44203826  0.79390615  0.64545381    -0.39650
C1231       C  0.03021634  0.64174927  0.50499315    -0.11930
C1232       C  0.02889102  0.62469736  0.53687003     0.05070
C1233       C  0.04834566  0.63622123  0.56229968    -0.07220
C1234       C  0.07013077  0.66262520  0.55478540    -0.07960
C1235       C  0.07249972  0.67908616  0.52286673    -0.02510
C1236       C  0.05171540  0.66913978  0.99759553     0.04300
N1237       N  0.05266789  0.68564035  0.96444783     0.66810
H1238       H  0.51563444  0.63271046  0.98537308     0.15710
H1239       H  0.08438759  0.67146898  0.57471580     0.15420
N1240       N  0.04545933  0.62210751  0.59625076     0.74510
O1241       O  0.02843795  0.68345742  0.94590039    -0.38940
O1242       O  0.07840640  0.70042978  0.95256365    -0.38880
O1243       O  0.07045096  0.61947717  0.61389484    -0.39580
O1244       O  0.01748659  0.61659916  0.61002376    -0.39650
C1245       C  0.04895872  0.83560896  0.56254909    -0.11930
C1246       C  0.04664843  0.85921139  0.53514234     0.05070
C1247       C  0.06128060  0.85231278  0.00386918    -0.07220
C1248       C  0.07615073  0.82183358  0.00065987    -0.07960
C1249       C  0.07787794  0.79861989  0.52812482    -0.02510
C1250       C  0.06445575  0.80566410  0.55958792     0.04300
N1251       N  0.06648324  0.78301218  0.58886149     0.66810
H1252       H  0.03814801  0.84006608  0.58678030     0.15710
H1253       H  0.08740446  0.81661920  0.97680863     0.15420
N1254       N  0.06231284  0.87596509  0.97546839     0.74510
O1255       O  0.06842297  0.79381154  0.61748143    -0.38940
O1256       O  0.06327321  0.75235027  0.58679629    -0.38880
O1257       O  0.07746377  0.90309895  0.97707020    -0.39580
O1258       O  0.05471707  0.86709044  0.94716232    -0.39650
C1259       C  0.20001375  0.75894409  0.54066970    -0.11930
C1260       C  0.17739563  0.73379278  0.55152953     0.05070
C1261       C  0.18750378  0.70857617  0.57504777    -0.07220
C1262       C  0.21992563  0.70885002  0.58598580    -0.07960
C1263       C  0.24272004  0.73412385  0.57494534    -0.02510
C1264       C  0.23186580  0.75977339  0.55232276     0.04300
N1265       N  0.25268901  0.78666740  0.53967128     0.66810
H1266       H  0.19303912  0.77836018  0.52246426     0.15710
H1267       H  0.22709730  0.68946096  0.60409334     0.15420
N1268       N  0.16506235  0.68340395  0.58932210     0.74510
O1269       O  0.26357037  0.78696962  0.50980733    -0.38940
O1270       O  0.24992645  0.81374532  0.55280883    -0.38880
O1271       O  0.17413311  0.65397027  0.59345153    -0.39580
O1272       O  0.13788773  0.69117805  0.60201167    -0.39650
C1273       C  0.59577690  0.26808743  0.52441087     0.03470
C1274       C  0.62779514  0.26582516  0.03558961    -0.12680
C1275       C  0.64362921  0.23545140  0.03818461     0.00970
C1276       C  0.62654931  0.20725903  0.02917022    -0.11210
C1277       C  0.59370873  0.20911846  0.51953947     0.03460
C1278       C  0.57892617  0.23983149  0.51596907    -0.10630
H1279       H  0.63969496  0.28763336  0.04393445     0.09050
H1280       H  0.63789185  0.18344297  0.03166391     0.06580
H1281       H  0.55320908  0.24125995  0.51027128     0.06430
C1282       C  0.82615683  0.19803583  0.09393795     0.03470
C1283       C  0.79285033  0.20073435  0.08702483    -0.12680
C1284       C  0.77766459  0.23160228  0.08558700     0.00970
C1285       C  0.79673026  0.25951908  0.09240796    -0.11210
C1286       C  0.83073687  0.25726727  0.09725441     0.03460
C1287       C  0.84484390  0.22626202  0.09908017    -0.10630
H1288       H  0.77937112  0.17893940  0.08088953     0.09050
H1289       H  0.78569710  0.28333469  0.09276626     0.06580
H1290       H  0.87101592  0.22422115  0.10209842     0.06430
C1291       C  0.67566703  0.45132688  0.19982701     0.03470
C1292       C  0.67985322  0.45620847  0.23390022    -0.12680
C1293       C  0.71098219  0.46322366  0.24584209     0.00970
C1294       C  0.73856784  0.46269943  0.22416269    -0.11210
C1295       C  0.73494373  0.45714033  0.19033532     0.03460
C1296       C  0.70363582  0.45186558  0.17824527    -0.10630
H1297       H  0.65892646  0.45526812  0.25123988     0.09050
H1298       H  0.76264728  0.46821059  0.23316581     0.06580
H1299       H  0.70114631  0.44917374  0.15174275     0.06430
C1300       C  0.75002300  0.01992770  0.42821113     0.03470
C1301       C  0.74910438  0.00855391  0.39588565    -0.12680
C1302       C  0.71895745  0.00128687  0.38175773     0.00970
C1303       C  0.68971309  0.00420079  0.40062900    -0.11210
C1304       C  0.69052688  0.01433678  0.43320088     0.03460
C1305       C  0.72030880  0.02362098  0.44613410    -0.10630
H1306       H  0.77168330  0.00465019  0.38196134     0.09050
H1307       H  0.66651429  0.99717454  0.39054488     0.06580
H1308       H  0.72029871  0.03201658  0.47117273     0.06430
C1309       C  0.50918651  0.12349440  0.26900797     0.03470
C1310       C  0.50109350  0.15659937  0.27236801    -0.12680
C1311       C  0.49553302  0.16816290  0.30421112     0.00970
C1312       C  0.49984771  0.14676523  0.33278572    -0.11210
C1313       C  0.50785949  0.11376114  0.32978182     0.03460
C1314       C  0.51249696  0.10230420  0.29797244    -0.10630
H1315       H  0.49729285  0.17284987  0.25022869     0.09050
H1316       H  0.49492256  0.15521629  0.35744305     0.06580
H1317       H  0.51629790  0.07627218  0.29582441     0.06430
C1318       C  0.93152544  0.34201671  0.35738492     0.03470
C1319       C  0.94104889  0.30963874  0.35296267    -0.12680
C1320       C  0.94726422  0.29941762  0.32062984     0.00970
C1321       C  0.94204736  0.32147097  0.29267963    -0.11210
C1322       C  0.93181927  0.35368436  0.29693523     0.03460
C1323       C  0.92662369  0.36371138  0.32930418    -0.10630
H1324       H  0.94519576  0.29294340  0.37467828     0.09050
H1325       H  0.94691158  0.31391391  0.26765784     0.06580
H1326       H  0.92009510  0.38895806  0.33266033     0.06430
O1327       O  0.52462972  0.41156659  0.01600315    -0.86150
O1328       O  0.92960181  0.46648412  0.16837041    -0.86320
O1329       O  0.53142950  0.42974373  0.12959742    -0.87990
O1330       O  0.94230112  0.37972525  0.09946917    -0.86740
O1331       O  0.89978159  0.39835478  0.06832947    -0.86330
O1332       O  0.55438745  0.48142143  0.11757110    -0.87700
O1333       O  0.95900863  0.42092608  0.15660925    -0.86180
O1334       O  0.51430191  0.39086360  0.07001961    -0.85770
Zr1335     Zr  0.98028328  0.42799097  0.09939923     2.84310
O1336       O  0.92854390  0.45121704  0.09887904    -1.07740
O1337       O  0.51637161  0.46092597  0.06367423    -1.08470
C1338       C  0.52750380  0.38936596  0.04048609     1.06960
C1339       C  0.94139403  0.43774337  0.17609373     1.06900
C1340       C  0.55418539  0.45194042  0.13180515     1.09880
C1341       C  0.91395455  0.37587810  0.08644892     1.07660
H1342       H  0.99106376  0.48032247  0.14089404     0.33220
O1343       O  0.98310210  0.48117102  0.11841772    -1.28700
H1344       H  0.96050208  0.40867287  0.03733167     0.32890
O1345       O  0.96155548  0.43065678  0.04478462    -1.30370
O1346       O  0.90218820  0.05661879  0.10982077    -0.86150
O1347       O  0.99780927  0.50141569  0.45776786    -0.87640
O1348       O  0.51445894  0.04456881  0.13226512    -0.86220
O1349       O  0.86108646  0.45440266  0.08267141    -0.86270
O1350       O  0.91443326  0.42146809  0.99464958    -0.85980
O1351       O  0.56705653  0.01341007  0.04434607    -0.85790
O1352       O  0.98444070  0.08717535  0.02768498    -0.86160
O1353       O  0.89429192  0.03740125  0.99819412    -0.85620
O1354       O  0.52655164  0.07066880  0.06108723    -0.86690
O1355       O  0.87314837  0.48491385  0.00945760    -0.85850
O1356       O  0.96123309  0.03957758  0.15258617    -0.86240
O1357       O  0.55339823  0.48299317  0.00057579    -0.85970
O1358       O  0.96665029  0.43121748  0.47309371    -0.85620
O1359       O  0.87430543  0.48636922  0.12544268    -0.86020
O1360       O  0.91358246  0.07720565  0.05594957    -0.86320
O1361       O  0.96668682  0.04570081  0.46954599    -0.87660
Zr1362     Zr  0.93098120  0.50423762  0.11754618     2.83100
Zr1363     Zr  0.99693042  0.46434790  0.00920082     2.83500
Zr1364     Zr  0.51845067  0.01397940  0.08206025     2.84090
Zr1365     Zr  0.90955992  0.45336239  0.04453010     2.83360
Zr1366     Zr  0.94671852  0.03926696  0.02710259     2.84220
O1367       O  0.94438710  0.48639235  0.00791379    -1.08230
O1368       O  0.96642427  0.03699627  0.08151003    -1.07730
C1369       C  0.89994481  0.07885792  0.08522043     1.06930
C1370       C  0.98467474  0.02947878  0.44982034     1.09550
C1371       C  0.99090239  0.05105543  0.15294546     1.07100
C1372       C  0.85449380  0.46804865  0.11024920     1.07460
C1373       C  0.93796452  0.41755020  0.47287989     1.07050
C1374       C  0.57325684  0.50100467  0.01605819     1.06600
C1375       C  0.51175763  0.09224094  0.04225408     1.07020
C1376       C  0.87176205  0.01474332  0.99656110     1.06540
H1377       H  0.51346604  0.03103111  0.01311858     0.33210
O1378       O  0.99898701  0.01711945  0.02780433    -1.29330
H1379       H  0.88975475  0.01521352  0.06325050     0.33240
O1380       O  0.91145138  0.50629991  0.06317497    -1.30710
C1381       C  0.91217359  0.39449589  0.21185640    -0.11930
C1382       C  0.93402844  0.42163991  0.20962354     0.05070
C1383       C  0.95300554  0.42811063  0.23736294    -0.07220
C1384       C  0.95048372  0.40609561  0.26613219    -0.07960
C1385       C  0.92978911  0.37798280  0.26771627    -0.02510
C1386       C  0.90957355  0.37258292  0.24061545     0.04300
N1387       N  0.88668439  0.34508146  0.24170382     0.66810
H1388       H  0.89773675  0.38981252  0.19047821     0.15710
H1389       H  0.96575419  0.41016501  0.28710883     0.15420
N1390       N  0.97609381  0.45550267  0.23619226     0.74510
O1391       O  0.87807651  0.33342847  0.21492193    -0.38940
O1392       O  0.87252465  0.33441590  0.26897626    -0.38880
O1393       O  0.97125623  0.48166838  0.21828235    -0.39580
O1394       O  0.50015578  0.45467240  0.25520449    -0.39650
C1395       C  0.96197056  0.38026378  0.43335748    -0.11930
C1396       C  0.93356390  0.39489157  0.44583616     0.05070
C1397       C  0.90324813  0.38828626  0.43122849    -0.07220
C1398       C  0.90260039  0.36835723  0.40393245    -0.07960
C1399       C  0.93147815  0.35538643  0.39068890    -0.02510
C1400       C  0.96134013  0.36113101  0.40597250     0.04300
N1401       N  0.99175577  0.35050573  0.39203814     0.66810
H1402       H  0.98542590  0.38443546  0.44438088     0.15710
H1403       H  0.87977233  0.36471544  0.39154119     0.15420
N1404       N  0.87353137  0.40325789  0.44185505     0.74510
O1405       O  0.51408194  0.37150085  0.38305546    -0.38940
O1406       O  0.99843322  0.32033116  0.39420573    -0.38880
O1407       O  0.87285866  0.43395885  0.44432996    -0.39580
O1408       O  0.84686683  0.38691778  0.44323211    -0.39650
C1409       C  0.98157805  0.11559398  0.21588106    -0.11930
C1410       C  0.50867229  0.10936444  0.23583591     0.05070
C1411       C  0.53217693  0.08662510  0.22583954    -0.07220
C1412       C  0.52635151  0.06864855  0.19789632    -0.07960
C1413       C  0.99815342  0.07352010  0.17923760    -0.02510
C1414       C  0.97629713  0.09855120  0.18731986     0.04300
N1415       N  0.94901432  0.10731315  0.16677495     0.66810
H1416       H  0.96379714  0.13332119  0.22315567     0.15710
H1417       H  0.54358355  0.05020154  0.19106412     0.15420
N1418       N  0.56179607  0.08144425  0.24379176     0.74510
O1419       O  0.92443378  0.12090891  0.17921453    -0.38940
O1420       O  0.95141761  0.10622284  0.13539188    -0.38880
O1421       O  0.57538286  0.05386878  0.24459984    -0.39580
O1422       O  0.57601478  0.10509773  0.25647922    -0.39650
C1423       C  0.52256407  0.04986829  0.40229635    -0.11930
C1424       C  0.99045042  0.04549130  0.41576658     0.05070
C1425       C  0.96460922  0.06179597  0.39941922    -0.07220
C1426       C  0.97164703  0.08398685  0.37178948    -0.07960
C1427       C  0.50373876  0.08987609  0.35928260    -0.02510
C1428       C  0.52974268  0.07203578  0.37403574     0.04300
N1429       N  0.56327176  0.07688647  0.36186225     0.66810
H1430       H  0.54232235  0.03753903  0.41513735     0.15710
H1431       H  0.95171440  0.09663905  0.35953239     0.15420
N1432       N  0.93106488  0.05607578  0.41062178     0.74510
O1433       O  0.58437853  0.05565916  0.36960018    -0.38940
O1434       O  0.57258518  0.10320939  0.34532462    -0.38880
O1435       O  0.91071050  0.07889809  0.40717243    -0.39580
O1436       O  0.92097575  0.02740133  0.42065807    -0.39650
C1437       C  0.94301535  0.23851942  0.33120495    -0.11930
C1438       C  0.96041920  0.26613096  0.31625469     0.05070
C1439       C  0.98941489  0.26139932  0.29690553    -0.07220
C1440       C  0.49970548  0.22917393  0.29257345    -0.07960
C1441       C  0.98234206  0.20159182  0.30768512    -0.02510
C1442       C  0.95328078  0.20636920  0.32685811     0.04300
N1443       N  0.93322320  0.17900029  0.34093999     0.66810
H1444       H  0.92053262  0.24203841  0.34548538     0.15690
H1445       H  0.52219031  0.22557133  0.27833395     0.15420
N1446       N  0.50943171  0.28879430  0.28276572     0.74510
O1447       O  0.91769930  0.18090648  0.36848009    -0.38940
O1448       O  0.92780923  0.15456572  0.32413174    -0.38880
O1449       O  0.51412675  0.31366871  0.29915245    -0.39580
O1450       O  0.52567478  0.28652225  0.25570370    -0.39650
C1451       C  0.62850629  0.48317437  0.50129102    -0.11930
C1452       C  0.60530416  0.00797623  0.49902259     0.05070
C1453       C  0.61040679  0.03543101  0.47538069    -0.07220
C1454       C  0.63829800  0.03654804  0.45377751    -0.07960
C1455       C  0.66106220  0.01130833  0.45555705    -0.02510
C1456       C  0.65647708  0.48441668  0.47992511     0.04300
N1457       N  0.67929944  0.45787986  0.48286944     0.66810
H1458       H  0.62392593  0.46185194  0.01881941     0.15710
H1459       H  0.64254033  0.05736146  0.43555688     0.15420
N1460       N  0.58751331  0.06190428  0.47256516     0.74510
O1461       O  0.68206895  0.44148124  0.51061515    -0.38940
O1462       O  0.69439352  0.44858696  0.45736499    -0.38880
O1463       O  0.57075313  0.06935306  0.99778151    -0.39580
O1464       O  0.58669039  0.08039747  0.44587227    -0.39650
C1465       C  0.78235485  0.01042402  0.47903259    -0.11930
C1466       C  0.78146829  0.02349049  0.44562185     0.05070
C1467       C  0.81054908  0.03798108  0.42999879    -0.07220
C1468       C  0.83992685  0.03670889  0.44756961    -0.07960
C1469       C  0.84054229  0.02264216  0.48053831    -0.02510
C1470       C  0.81097079  0.01108657  0.99691845     0.04300
N1471       N  0.80969003  0.00029619  0.03194812     0.66810
H1472       H  0.76054726  0.99924850  0.49154820     0.15710
H1473       H  0.86239428  0.04622935  0.43533421     0.15420
N1474       N  0.81073432  0.05425269  0.39685735     0.74510
O1475       O  0.82499449  0.01651817  0.05233119    -0.38940
O1476       O  0.79020419  0.47730150  0.04312024    -0.38880
O1477       O  0.78702861  0.07178681  0.38774114    -0.39580
O1478       O  0.83612626  0.05427161  0.37800905    -0.39650
C1479       C  0.63752246  0.42556430  0.16088423    -0.11930
C1480       C  0.64232685  0.44741643  0.18602659     0.05070
C1481       C  0.61567054  0.46653552  0.19592710    -0.07220
C1482       C  0.58589249  0.46439055  0.18002600    -0.07960
C1483       C  0.58199740  0.44451213  0.15336062    -0.02510
C1484       C  0.60789469  0.42418019  0.14398174     0.04300
N1485       N  0.60550994  0.40377917  0.11627163     0.66810
H1486       H  0.65736013  0.41004660  0.15366231     0.15710
H1487       H  0.56640999  0.48065484  0.18669214     0.15420
N1488       N  0.61928237  0.49108388  0.21925729     0.74510
O1489       O  0.63088698  0.39727963  0.09937768    -0.38940
O1490       O  0.57878178  0.38959540  0.11052440    -0.38880
O1491       O  0.63501583  0.51741461  0.21031185    -0.39580
O1492       O  0.60162494  0.48936764  0.24580582    -0.39650
C1493       C  0.78265746  0.43135362  0.16398126    -0.11930
C1494       C  0.76382541  0.45946256  0.16706544     0.05070
C1495       C  0.77315005  0.48926277  0.14847210    -0.07220
C1496       C  0.80222627  0.49046101  0.12879516    -0.07960
C1497       C  0.82179859  0.46276886  0.12658826    -0.02510
C1498       C  0.81173649  0.43246530  0.14400217     0.04300
N1499       N  0.83100705  0.40319131  0.14308018     0.66810
H1500       H  0.77510816  0.40863757  0.17822545     0.15710
H1501       H  0.81042490  0.01372161  0.11607880     0.15420
N1502       N  0.75398557  0.01855592  0.14944017     0.74510
O1503       O  0.81767446  0.37513557  0.14987413    -0.38940
O1504       O  0.86165644  0.40507979  0.13805108    -0.38880
O1505       O  0.73801875  0.02478385  0.17562787    -0.39580
O1506       O  0.75486455  0.03965788  0.12464911    -0.39650
C1507       C  0.73180564  0.45428208  0.30357153    -0.11930
C1508       C  0.71423192  0.47370825  0.28027786     0.05070
C1509       C  0.69900239  0.00240527  0.29038519    -0.07220
C1510       C  0.70043086  0.01006189  0.32382729    -0.07960
C1511       C  0.71762390  0.99053692  0.34727786    -0.02510
C1512       C  0.73358117  0.46216864  0.33711724     0.04300
N1513       N  0.75051642  0.44056128  0.36049497     0.66810
H1514       H  0.74328286  0.43222503  0.29577140     0.15710
H1515       H  0.68896088  0.03220219  0.33145555     0.15420
N1516       N  0.68340568  0.02482450  0.26679458     0.74510
O1517       O  0.73986934  0.43527520  0.39039951    -0.38940
O1518       O  0.77412619  0.42392221  0.35042722    -0.38880
O1519       O  0.65938188  0.04130035  0.27616243    -0.39580
O1520       O  0.69654731  0.03192361  0.23813587    -0.39650
C1521       C  0.88600282  0.13580007  0.06541119    -0.11930
C1522       C  0.88066374  0.10908103  0.08961286     0.05070
C1523       C  0.85588208  0.11162895  0.11489238    -0.07220
C1524       C  0.83733868  0.14038174  0.11501970    -0.07960
C1525       C  0.84309298  0.16669772  0.09075109    -0.02510
C1526       C  0.86726165  0.16409941  0.06520940     0.04300
N1527       N  0.87266321  0.18961613  0.03853227     0.66810
H1528       H  0.90458777  0.13451278  0.04567439     0.15710
H1529       H  0.81891004  0.14259541  0.13476180     0.15420
N1530       N  0.84882216  0.08556163  0.14033181     0.74510
O1531       O  0.90070756  0.19418916  0.02455235    -0.38940
O1532       O  0.84883432  0.20504373  0.02626655    -0.38880
O1533       O  0.86988664  0.07816255  0.16180443    -0.39580
O1534       O  0.81959282  0.07553141  0.14598996    -0.39650
C1535       C  0.87027806  0.33974490  0.06755466    -0.11930
C1536       C  0.89489856  0.34396260  0.09077695     0.05070
C1537       C  0.89938064  0.31816492  0.11587313    -0.07220
C1538       C  0.87789892  0.29033370  0.11799853    -0.07960
C1539       C  0.85253973  0.28725566  0.09525975    -0.02510
C1540       C  0.84991768  0.31188077  0.06890964     0.04300
N1541       N  0.82879487  0.30793291  0.04150933     0.66810
H1542       H  0.86751029  0.35783349  0.04666297     0.15710
H1543       H  0.88090443  0.27103972  0.13771368     0.15420
N1544       N  0.92540188  0.31923904  0.13896570     0.74510
O1545       O  0.81516474  0.33274790  0.02773795    -0.38940
O1546       O  0.82951807  0.28168439  0.02665737    -0.38880
O1547       O  0.92873959  0.34351842  0.15643020    -0.39580
O1548       O  0.94203806  0.29390652  0.14545363    -0.39650
C1549       C  0.53021620  0.14174920  0.00499319    -0.11930
C1550       C  0.52889072  0.12469735  0.03687013     0.05070
C1551       C  0.54834555  0.13622114  0.06229970    -0.07220
C1552       C  0.57013074  0.16262507  0.05478539    -0.07960
C1553       C  0.57249967  0.17908607  0.02286676    -0.02510
C1554       C  0.55171559  0.16914007  0.49759535     0.04300
N1555       N  0.55266798  0.18564065  0.46444766     0.66810
H1556       H  0.01563449  0.13271050  0.48537307     0.15710
H1557       H  0.58438762  0.17146880  0.07471577     0.15420
N1558       N  0.54545933  0.12210742  0.09625078     0.74510
O1559       O  0.52843805  0.18345757  0.44590023    -0.38940
O1560       O  0.57840649  0.20043001  0.45256339    -0.38880
O1561       O  0.57045101  0.11947721  0.11389482    -0.39580
O1562       O  0.51748662  0.11659917  0.11002389    -0.39650
C1563       C  0.54895872  0.33560900  0.06254911    -0.11930
C1564       C  0.54664844  0.35921146  0.03514236     0.05070
C1565       C  0.56128051  0.35231280  0.50386921    -0.07220
C1566       C  0.57615063  0.32183360  0.50065988    -0.07960
C1567       C  0.57787796  0.29861992  0.02812483    -0.02510
C1568       C  0.56445576  0.30566413  0.05958793     0.04300
N1569       N  0.56648324  0.28301221  0.08886150     0.66810
H1570       H  0.53814800  0.34006613  0.08678031     0.15710
H1571       H  0.58740434  0.31661921  0.47680864     0.15420
N1572       N  0.56231276  0.37596510  0.47546841     0.74510
O1573       O  0.56842297  0.29381156  0.11748144    -0.38940
O1574       O  0.56327322  0.25235029  0.08679628    -0.38880
O1575       O  0.57746372  0.40309894  0.47707021    -0.39580
O1576       O  0.55471701  0.36709043  0.44716234    -0.39650
C1577       C  0.70001379  0.25894410  0.04066970    -0.11930
C1578       C  0.67739566  0.23379279  0.05152955     0.05070
C1579       C  0.68750382  0.20857619  0.07504779    -0.07220
C1580       C  0.71992569  0.20885004  0.08598581    -0.07960
C1581       C  0.74272011  0.23412387  0.07494534    -0.02510
C1582       C  0.73186585  0.25977339  0.05232275     0.04300
N1583       N  0.75268906  0.28666738  0.03967124     0.66810
H1584       H  0.69303916  0.27836019  0.02246426     0.15710
H1585       H  0.72709736  0.18946098  0.10409334     0.15420
N1586       N  0.66506238  0.18340399  0.08932215     0.74510
O1587       O  0.76357044  0.28696956  0.00980730    -0.38940
O1588       O  0.74992650  0.31374532  0.05280876    -0.38880
O1589       O  0.67413311  0.15397031  0.09345157    -0.39580
O1590       O  0.63788777  0.19117811  0.10201171    -0.39650
C1591       C  0.59577688  0.26808741  0.02441092     0.03470
C1592       C  0.62779514  0.26582518  0.53558961    -0.12680
C1593       C  0.64362922  0.23545143  0.53818455     0.00970
C1594       C  0.62654941  0.20725912  0.52917002    -0.11210
C1595       C  0.59370859  0.20911831  0.01953971     0.03460
C1596       C  0.57892609  0.23983141  0.01596922    -0.10630
H1597       H  0.63969493  0.28763337  0.54393452     0.09050
H1598       H  0.63789194  0.18344305  0.53166368     0.06580
H1599       H  0.55320902  0.24125991  0.01027144     0.06430
C1600       C  0.82615669  0.19803594  0.59393794     0.03470
C1601       C  0.79285022  0.20073441  0.58702480    -0.12680
C1602       C  0.77766448  0.23160232  0.58558696     0.00970
C1603       C  0.79673015  0.25951912  0.59240791    -0.11210
C1604       C  0.83073675  0.25726731  0.59725440     0.03460
C1605       C  0.84484377  0.22626209  0.59908017    -0.10630
H1606       H  0.77937103  0.17893945  0.58088948     0.09050
H1607       H  0.78569699  0.28333473  0.59276621     0.06580
H1608       H  0.87101579  0.22422120  0.60209843     0.06430
C1609       C  0.67566703  0.45132689  0.69982698     0.03470
C1610       C  0.67985322  0.45620847  0.73390019    -0.12680
C1611       C  0.71098219  0.46322366  0.74584207     0.00970
C1612       C  0.73856784  0.46269942  0.72416266    -0.11210
C1613       C  0.73494376  0.45714033  0.69033528     0.03460
C1614       C  0.70363583  0.45186559  0.67824524    -0.10630
H1615       H  0.65892645  0.45526813  0.75123985     0.09050
H1616       H  0.76264728  0.46821058  0.73316580     0.06580
H1617       H  0.70114631  0.44917376  0.65174272     0.06430
C1618       C  0.75002313  0.01992775  0.92821112     0.03470
C1619       C  0.74910445  0.00855403  0.89588559    -0.12680
C1620       C  0.71895748  0.00128701  0.88175768     0.00970
C1621       C  0.68971314  0.00420093  0.90062896    -0.11210
C1622       C  0.69052694  0.01433688  0.93320085     0.03460
C1623       C  0.72030891  0.02362105  0.94613407    -0.10630
H1624       H  0.77168336  0.00465031  0.88196125     0.09050
H1625       H  0.66651433  0.99717469  0.89054484     0.06580
H1626       H  0.72029883  0.03201661  0.97117271     0.06430
C1627       C  0.50918645  0.12349440  0.76900818     0.03470
C1628       C  0.50109347  0.15659935  0.77236817    -0.12680
C1629       C  0.49553300  0.16816286  0.80421125     0.00970
C1630       C  0.49984764  0.14676516  0.83278585    -0.11210
C1631       C  0.50785939  0.11376104  0.82978200     0.03460
C1632       C  0.51249686  0.10230413  0.79797261    -0.10630
H1633       H  0.49729285  0.17284985  0.75022883     0.09050
H1634       H  0.49492248  0.15521624  0.85744317     0.06580
H1635       H  0.51629778  0.07627211  0.79582454     0.06430
C1636       C  0.93152546  0.34201678  0.85738496     0.03470
C1637       C  0.94104890  0.30963879  0.85296270    -0.12680
C1638       C  0.94726423  0.29941767  0.82062987     0.00970
C1639       C  0.94204737  0.32147100  0.79267966    -0.11210
C1640       C  0.93181926  0.35368439  0.79693526     0.03460
C1641       C  0.92662370  0.36371142  0.82930421    -0.10630
H1642       H  0.94519576  0.29294345  0.87467831     0.09050
H1643       H  0.94691159  0.31391395  0.76765787     0.06580
H1644       H  0.92009509  0.38895810  0.83266035     0.06430
O1645       O  0.52462977  0.41156630  0.51600306    -0.86150
O1646       O  0.92960211  0.46648406  0.66837054    -0.86320
O1647       O  0.53142959  0.42974359  0.62959751    -0.87990
O1648       O  0.94230119  0.37972504  0.59946916    -0.86740
O1649       O  0.89978178  0.39835452  0.56832932    -0.86330
O1650       O  0.55438749  0.48142136  0.61757133    -0.87700
O1651       O  0.95900869  0.42092592  0.65660927    -0.86180
O1652       O  0.51430199  0.39086334  0.57001955    -0.85770
Zr1653     Zr  0.98028334  0.42799079  0.59939924     2.84310
O1654       O  0.92854388  0.45121672  0.59887920    -1.07740
O1655       O  0.51637154  0.46092593  0.56367423    -1.08470
C1656       C  0.52750385  0.38936572  0.54048602     1.06960
C1657       C  0.94139418  0.43774325  0.67609379     1.06900
C1658       C  0.55418542  0.45194033  0.63180530     1.09880
C1659       C  0.91395465  0.37587789  0.58644886     1.07660
H1660       H  0.99106420  0.48032224  0.64089452     0.33220
O1661       O  0.98310257  0.48117080  0.61841829    -1.28700
H1662       H  0.96050237  0.40867221  0.53733145     0.32890
O1663       O  0.96155576  0.43065605  0.54478439    -1.30370
O1664       O  0.90218820  0.05661968  0.60982107    -0.86150
O1665       O  0.99780915  0.50141576  0.95776798    -0.87640
O1666       O  0.51445996  0.04456909  0.63226549    -0.86220
O1667       O  0.86108670  0.45440271  0.58267118    -0.86270
O1668       O  0.91443345  0.42146769  0.49464954    -0.85980
O1669       O  0.56705685  0.01341030  0.54434599    -0.85790
O1670       O  0.98443985  0.08717547  0.52768557    -0.86160
O1671       O  0.89429157  0.03740133  0.49819331    -0.85620
O1672       O  0.52655284  0.07066878  0.56108701    -0.86690
O1673       O  0.87314861  0.48491383  0.50945778    -0.85850
O1674       O  0.96123246  0.03957794  0.65258563    -0.86240
O1675       O  0.55339834  0.48299318  0.50057576    -0.85970
O1676       O  0.96665022  0.43121758  0.97309387    -0.85620
O1677       O  0.87430562  0.48636936  0.62544242    -0.86020
O1678       O  0.91358263  0.07720656  0.55594996    -0.86320
O1679       O  0.96668773  0.04570091  0.96954578    -0.87660
Zr1680     Zr  0.93098160  0.50423745  0.61754633     2.83100
Zr1681     Zr  0.99693050  0.46434777  0.50920071     2.83500
Zr1682     Zr  0.51845158  0.01397941  0.58206069     2.84090
Zr1683     Zr  0.90956030  0.45336200  0.54452996     2.83360
Zr1684     Zr  0.94671736  0.03926710  0.52710289     2.84220
O1685       O  0.94438720  0.48639227  0.50791342    -1.08230
O1686       O  0.96642368  0.03699556  0.58150972    -1.07730
C1687       C  0.89994502  0.07885881  0.58522080     1.06930
C1688       C  0.98467522  0.02947865  0.94982005     1.09550
C1689       C  0.99090192  0.05105545  0.65294523     1.07100
C1690       C  0.85449397  0.46804876  0.61024896     1.07460
C1691       C  0.93796441  0.41755040  0.97288001     1.07050
C1692       C  0.57325691  0.50100472  0.51605820     1.06600
C1693       C  0.51175925  0.09224080  0.54225331     1.07020
C1694       C  0.87176183  0.01474336  0.49656018     1.06540
H1695       H  0.51347023  0.03103185  0.51311656     0.33210
O1696       O  0.99898537  0.01711904  0.52780525    -1.29330
H1697       H  0.88975522  0.01521356  0.56325057     0.33240
O1698       O  0.91145053  0.50630018  0.56317493    -1.30710
C1699       C  0.91217364  0.39449586  0.71185642    -0.11930
C1700       C  0.93402853  0.42163984  0.70962357     0.05070
C1701       C  0.95300559  0.42811060  0.73736297    -0.07220
C1702       C  0.95048374  0.40609561  0.76613223    -0.07960
C1703       C  0.92978911  0.37798281  0.76771630    -0.02510
C1704       C  0.90957356  0.37258292  0.74061548     0.04300
N1705       N  0.88668438  0.34508147  0.74170385     0.66810
H1706       H  0.89773680  0.38981250  0.69047822     0.15710
H1707       H  0.96575420  0.41016501  0.78710888     0.15420
N1708       N  0.97609385  0.45550265  0.73619227     0.74510
O1709       O  0.87807650  0.33342848  0.71492195    -0.38940
O1710       O  0.87252464  0.33441591  0.76897628    -0.38880
O1711       O  0.97125632  0.48166832  0.71828228    -0.39580
O1712       O  0.50015595  0.45467233  0.75520456    -0.39650
C1713       C  0.96197050  0.38026384  0.93335763    -0.11930
C1714       C  0.93356383  0.39489168  0.94583629     0.05070
C1715       C  0.90324809  0.38828637  0.93122855    -0.07220
C1716       C  0.90260039  0.36835736  0.90393248    -0.07960
C1717       C  0.93147815  0.35538652  0.89068896    -0.02510
C1718       C  0.96134009  0.36113106  0.90597263     0.04300
N1719       N  0.99175574  0.35050571  0.89203832     0.66810
H1720       H  0.98542583  0.38443550  0.94438107     0.15710
H1721       H  0.87977234  0.36471560  0.89154118     0.15420
N1722       N  0.87353134  0.40325803  0.94185504     0.74510
O1723       O  0.51408191  0.37150083  0.88305555    -0.38940
O1724       O  0.99843314  0.32033114  0.89420591    -0.38880
O1725       O  0.87285864  0.43395899  0.94432994    -0.39580
O1726       O  0.84686677  0.38691794  0.94323202    -0.39650
C1727       C  0.98157798  0.11559396  0.71588102    -0.11930
C1728       C  0.50867236  0.10936458  0.73583613     0.05070
C1729       C  0.53217714  0.08662537  0.72583985    -0.07220
C1730       C  0.52635207  0.06864903  0.69789656    -0.07960
C1731       C  0.99815309  0.07351995  0.67923757    -0.02510
C1732       C  0.97629695  0.09855115  0.68731986     0.04300
N1733       N  0.94901420  0.10731323  0.66677494     0.66810
H1734       H  0.96379715  0.13332124  0.72315560     0.15710
H1735       H  0.54358419  0.05020205  0.69106447     0.15420
N1736       N  0.56179610  0.08144433  0.74379224     0.74510
O1737       O  0.92443369  0.12090902  0.67921453    -0.38940
O1738       O  0.95141756  0.10622306  0.63539185    -0.38880
O1739       O  0.57538290  0.05386888  0.74460005    -0.39580
O1740       O  0.57601503  0.10509782  0.75647945    -0.39650
C1741       C  0.52256363  0.04986855  0.90229716    -0.11930
C1742       C  0.99045062  0.04549108  0.91576628     0.05070
C1743       C  0.96460934  0.06179585  0.89941909    -0.07220
C1744       C  0.97164710  0.08398687  0.87178944    -0.07960
C1745       C  0.50373857  0.08987598  0.85928282    -0.02510
C1746       C  0.52974241  0.07203572  0.87403621     0.04300
N1747       N  0.56327150  0.07688626  0.86186259     0.66810
H1748       H  0.54232181  0.03753923  0.91513826     0.15710
H1749       H  0.95171445  0.09663913  0.85953244     0.15420
N1750       N  0.93106502  0.05607574  0.91062180     0.74510
O1751       O  0.58437822  0.05565885  0.86960035    -0.38940
O1752       O  0.57258494  0.10320910  0.84532483    -0.38880
O1753       O  0.91071065  0.07889807  0.90717244    -0.39580
O1754       O  0.92097587  0.02740131  0.92065815    -0.39650
C1755       C  0.94301536  0.23851946  0.83120496    -0.11930
C1756       C  0.96041921  0.26613100  0.81625470     0.05070
C1757       C  0.98941490  0.26139936  0.79690555    -0.07220
C1758       C  0.49970547  0.22917389  0.79257344    -0.07960
C1759       C  0.98234206  0.20159185  0.80768511    -0.02510
C1760       C  0.95328078  0.20636924  0.82685811     0.04300
N1761       N  0.93322321  0.17900034  0.84094000     0.66810
H1762       H  0.92053263  0.24203845  0.84548539     0.15690
H1763       H  0.52219029  0.22557127  0.77833392     0.15420
N1764       N  0.50943174  0.28879426  0.78276571     0.74510
O1765       O  0.91769930  0.18090653  0.86848010    -0.38940
O1766       O  0.92780923  0.15456576  0.82413175    -0.38880
O1767       O  0.51412681  0.31366866  0.79915243    -0.39580
O1768       O  0.52567481  0.28652220  0.75570368    -0.39650
C1769       C  0.62850641  0.48317456  0.00129117    -0.11930
C1770       C  0.60530385  0.00797635  0.99902231     0.05070
C1771       C  0.61040596  0.03543056  0.97537944    -0.07220
C1772       C  0.63829743  0.03654760  0.95377656    -0.07960
C1773       C  0.66106221  0.01130846  0.95555699    -0.02510
C1774       C  0.65647720  0.48441686  0.97992526     0.04300
N1775       N  0.67929966  0.45788013  0.98286973     0.66810
H1776       H  0.62392570  0.46185163  0.51881909     0.15710
H1777       H  0.64253949  0.05736051  0.93555527     0.15420
N1778       N  0.58751175  0.06190322  0.97256248     0.74510
O1779       O  0.68206920  0.44148164  0.01061552    -0.38940
O1780       O  0.69439372  0.44858709  0.95736533    -0.38880
O1781       O  0.57075833  0.06935605  0.49778586    -0.39580
O1782       O  0.58669120  0.08039759  0.94587017    -0.39650
C1783       C  0.78235497  0.01042384  0.97903262    -0.11930
C1784       C  0.78146847  0.02349041  0.94562192     0.05070
C1785       C  0.81054932  0.03798106  0.92999903    -0.07220
C1786       C  0.83992709  0.03670883  0.94757003    -0.07960
C1787       C  0.84054247  0.02264205  0.98053881    -0.02510
C1788       C  0.81097073  0.01108679  0.49691825     0.04300
N1789       N  0.80969019  0.00029641  0.53194795     0.66810
H1790       H  0.76054734  0.99924830  0.99154813     0.15710
H1791       H  0.86239454  0.04622936  0.93533474     0.15420
N1792       N  0.81073458  0.05425279  0.89685762     0.74510
O1793       O  0.82499482  0.01651838  0.55233092    -0.38940
O1794       O  0.79020407  0.47730201  0.54312054    -0.38880
O1795       O  0.78702878  0.07178677  0.88774136    -0.39580
O1796       O  0.83612647  0.05427169  0.87800927    -0.39650
C1797       C  0.63752246  0.42556432  0.66088421    -0.11930
C1798       C  0.64232686  0.44741645  0.68602658     0.05070
C1799       C  0.61567054  0.46653553  0.69592712    -0.07220
C1800       C  0.58589248  0.46439051  0.68002608    -0.07960
C1801       C  0.58199739  0.44451207  0.65336073    -0.02510
C1802       C  0.60789468  0.42418018  0.64398177     0.04300
N1803       N  0.60550993  0.40377922  0.61627160     0.66810
H1804       H  0.65736014  0.41004666  0.65366226     0.15710
H1805       H  0.56640997  0.48065479  0.68669223     0.15420
N1806       N  0.61928236  0.49108388  0.71925731     0.74510
O1807       O  0.63088696  0.39727970  0.59937765    -0.38940
O1808       O  0.57878177  0.38959546  0.61052434    -0.38880
O1809       O  0.63501582  0.51741462  0.71031188    -0.39580
O1810       O  0.60162489  0.48936766  0.74580581    -0.39650
C1811       C  0.78265756  0.43135368  0.66398118    -0.11930
C1812       C  0.76382546  0.45946259  0.66706538     0.05070
C1813       C  0.77315009  0.48926279  0.64847201    -0.07220
C1814       C  0.80222632  0.49046105  0.62879501    -0.07960
C1815       C  0.82179870  0.46276894  0.62658808    -0.02510
C1816       C  0.81173658  0.43246537  0.64400205     0.04300
N1817       N  0.83100711  0.40319136  0.64308010     0.66810
H1818       H  0.77510828  0.40863763  0.67822539     0.15710
H1819       H  0.81042468  0.01372128  0.61607881     0.15420
N1820       N  0.75398544  0.01855586  0.64944018     0.74510
O1821       O  0.81767450  0.37513564  0.64987417    -0.38940
O1822       O  0.86165649  0.40507981  0.63805100    -0.38880
O1823       O  0.73801866  0.02478391  0.67562787    -0.39580
O1824       O  0.75486453  0.03965780  0.62464910    -0.39650
C1825       C  0.73180560  0.45428207  0.80357151    -0.11930
C1826       C  0.71423190  0.47370825  0.78027783     0.05070
C1827       C  0.69900230  0.00240534  0.79038515    -0.07220
C1828       C  0.70043080  0.01006198  0.82382725    -0.07960
C1829       C  0.71762387  0.99053704  0.84727782    -0.02510
C1830       C  0.73358114  0.46216864  0.83711722     0.04300
N1831       N  0.75051637  0.44056127  0.86049496     0.66810
H1832       H  0.74328280  0.43222500  0.79577139     0.15710
H1833       H  0.68896083  0.03220230  0.83145549     0.15420
N1834       N  0.68340559  0.02482455  0.76679453     0.74510
O1835       O  0.73986928  0.43527521  0.89039951    -0.38940
O1836       O  0.77412613  0.42392218  0.85042723    -0.38880
O1837       O  0.65938180  0.04130041  0.77616237    -0.39580
O1838       O  0.69654723  0.03192365  0.73813582    -0.39650
C1839       C  0.88600286  0.13580059  0.56541139    -0.11930
C1840       C  0.88066391  0.10908171  0.58961319     0.05070
C1841       C  0.85588205  0.11162935  0.61489254    -0.07220
C1842       C  0.83733847  0.14038197  0.61501972    -0.07960
C1843       C  0.84309279  0.16669793  0.59075107    -0.02510
C1844       C  0.86726153  0.16409973  0.56520943     0.04300
N1845       N  0.87266311  0.18961639  0.53853227     0.66810
H1846       H  0.90458788  0.13451337  0.54567464     0.15710
H1847       H  0.81890973  0.14259556  0.63476173     0.15420
N1848       N  0.84882212  0.08556189  0.64033187     0.74510
O1849       O  0.90070746  0.19418933  0.52455233    -0.38940
O1850       O  0.84883422  0.20504390  0.52626643    -0.38880
O1851       O  0.86988656  0.07816275  0.66180451    -0.39580
O1852       O  0.81959282  0.07553148  0.64598982    -0.39650
C1853       C  0.87027802  0.33974483  0.56755465    -0.11930
C1854       C  0.89489856  0.34396247  0.59077693     0.05070
C1855       C  0.89938058  0.31816484  0.61587314    -0.07220
C1856       C  0.87789882  0.29033365  0.61799855    -0.07960
C1857       C  0.85253962  0.28725565  0.59525975    -0.02510
C1858       C  0.84991761  0.31188075  0.56890963     0.04300
N1859       N  0.82879480  0.30793290  0.54150932     0.66810
H1860       H  0.86751028  0.35783341  0.54666295     0.15710
H1861       H  0.88090430  0.27103968  0.63771370     0.15420
N1862       N  0.92540179  0.31923898  0.63896573     0.74510
O1863       O  0.81516467  0.33274791  0.52773794    -0.38940
O1864       O  0.82951802  0.28168440  0.52665732    -0.38880
O1865       O  0.92873953  0.34351839  0.65643017    -0.39580
O1866       O  0.94203804  0.29390649  0.64545362    -0.39650
C1867       C  0.53021668  0.14174944  0.50499293    -0.11930
C1868       C  0.52889166  0.12469738  0.53686972     0.05070
C1869       C  0.54834600  0.13622135  0.56229948    -0.07220
C1870       C  0.57013097  0.16262540  0.55478528    -0.07960
C1871       C  0.57249990  0.17908633  0.52286658    -0.02510
C1872       C  0.55171537  0.16913973  0.99759554     0.04300
N1873       N  0.55266788  0.18564032  0.96444785     0.66810
H1874       H  0.01563472  0.13271058  0.98537295     0.15710
H1875       H  0.58438771  0.17146923  0.57471571     0.15420
N1876       N  0.54545951  0.12210759  0.59625054     0.74510
O1877       O  0.52843795  0.18345744  0.94590041    -0.38940
O1878       O  0.57840639  0.20042981  0.95256373    -0.38880
O1879       O  0.57045107  0.11947698  0.61389468    -0.39580
O1880       O  0.51748670  0.11659913  0.61002338    -0.39650
C1881       C  0.54895874  0.33560888  0.56254907    -0.11930
C1882       C  0.54664846  0.35921129  0.53514230     0.05070
C1883       C  0.56128053  0.35231293  0.00386928    -0.07220
C1884       C  0.57615067  0.32183371  0.00065995    -0.07960
C1885       C  0.57787795  0.29861986  0.52812479    -0.02510
C1886       C  0.56445577  0.30566404  0.55958789     0.04300
N1887       N  0.56648326  0.28301213  0.58886147     0.66810
H1888       H  0.53814805  0.34006601  0.58678028     0.15710
H1889       H  0.58740439  0.31661933  0.97680871     0.15420
N1890       N  0.56231278  0.37596520  0.97546846     0.74510
O1891       O  0.56842297  0.29381150  0.61748141    -0.38940
O1892       O  0.56327321  0.25235022  0.58679627    -0.38880
O1893       O  0.57746376  0.40309904  0.97707025    -0.39580
O1894       O  0.55471707  0.36709050  0.94716239    -0.39650
C1895       C  0.70001375  0.25894407  0.54066965    -0.11930
C1896       C  0.67739563  0.23379277  0.55152950     0.05070
C1897       C  0.68750378  0.20857615  0.57504772    -0.07220
C1898       C  0.71992563  0.20885000  0.58598574    -0.07960
C1899       C  0.74272004  0.23412386  0.57494529    -0.02510
C1900       C  0.73186579  0.25977337  0.55232269     0.04300
N1901       N  0.75268900  0.28666736  0.53967119     0.66810
H1902       H  0.69303911  0.27836016  0.52246420     0.15710
H1903       H  0.72709731  0.18946094  0.60409328     0.15420
N1904       N  0.66506234  0.18340392  0.58932205     0.74510
O1905       O  0.76357039  0.28696953  0.50980725    -0.38940
O1906       O  0.74992641  0.31374530  0.55280869    -0.38880
O1907       O  0.67413311  0.15397025  0.59345153    -0.39580
O1908       O  0.63788771  0.19117803  0.60201158    -0.39650
C1909       C  0.59577693  0.76808732  0.52441083     0.03470
C1910       C  0.62779513  0.76582515  0.03558961    -0.12680
C1911       C  0.64362920  0.73545138  0.03818460     0.00970
C1912       C  0.62654931  0.70725903  0.02917019    -0.11210
C1913       C  0.59370868  0.70911832  0.51953957     0.03460
C1914       C  0.57892616  0.73983137  0.51596910    -0.10630
H1915       H  0.63969495  0.78763334  0.04393446     0.09050
H1916       H  0.63789184  0.68344296  0.03166387     0.06580
H1917       H  0.55320908  0.74125986  0.51027131     0.06430
C1918       C  0.82615666  0.69803592  0.09393796     0.03470
C1919       C  0.79285020  0.70073439  0.08702482    -0.12680
C1920       C  0.77766448  0.73160230  0.08558700     0.00970
C1921       C  0.79673015  0.75951908  0.09240798    -0.11210
C1922       C  0.83073674  0.75726723  0.09725448     0.03460
C1923       C  0.84484376  0.72626203  0.09908021    -0.10630
H1924       H  0.77937101  0.67893944  0.08088950     0.09050
H1925       H  0.78569701  0.78333469  0.09276630     0.06580
H1926       H  0.87101578  0.72422112  0.10209846     0.06430
C1927       C  0.67566713  0.95132686  0.19982695     0.03470
C1928       C  0.67985334  0.95620844  0.23390016    -0.12680
C1929       C  0.71098232  0.96322364  0.24584201     0.00970
C1930       C  0.73856798  0.96269941  0.22416258    -0.11210
C1931       C  0.73494392  0.95714033  0.19033517     0.03460
C1932       C  0.70363595  0.95186556  0.17824518    -0.10630
H1933       H  0.65892658  0.95526810  0.25123983     0.09050
H1934       H  0.76264741  0.96821059  0.23316572     0.06580
H1935       H  0.70114640  0.94917374  0.15174267     0.06430
C1936       C  0.75002299  0.51992776  0.42821114     0.03470
C1937       C  0.74910435  0.50855398  0.39588565    -0.12680
C1938       C  0.71895741  0.50128696  0.38175774     0.00970
C1939       C  0.68971306  0.50420090  0.40062902    -0.11210
C1940       C  0.69052687  0.51433686  0.43320091     0.03460
C1941       C  0.72030880  0.52362105  0.44613412    -0.10630
H1942       H  0.77168327  0.50465025  0.38196134     0.09050
H1943       H  0.66651425  0.49717467  0.39054490     0.06580
H1944       H  0.72029872  0.53201665  0.47117274     0.06430
C1945       C  0.50918647  0.62349435  0.26900802     0.03470
C1946       C  0.50109348  0.65659931  0.27236804    -0.12680
C1947       C  0.49553304  0.66816285  0.30421114     0.00970
C1948       C  0.49984774  0.64676518  0.33278574    -0.11210
C1949       C  0.50785950  0.61376108  0.32978187     0.03460
C1950       C  0.51249693  0.60230413  0.29797249    -0.10630
H1951       H  0.49729282  0.67284981  0.25022872     0.09050
H1952       H  0.49492261  0.65521626  0.35744307     0.06580
H1953       H  0.51629785  0.57627211  0.29582444     0.06430
C1954       C  0.93152543  0.84201672  0.35738494     0.03470
C1955       C  0.94104889  0.80963875  0.35296269    -0.12680
C1956       C  0.94726423  0.79941763  0.32062986     0.00970
C1957       C  0.94204736  0.82147096  0.29267966    -0.11210
C1958       C  0.93181924  0.85368433  0.29693529     0.03460
C1959       C  0.92662367  0.86371137  0.32930421    -0.10630
H1960       H  0.94519576  0.79294341  0.37467830     0.09050
H1961       H  0.94691159  0.81391391  0.26765787     0.06580
H1962       H  0.92009508  0.88895805  0.33266035     0.06430
O1963       O  0.52462971  0.91156680  0.01600323    -0.86150
O1964       O  0.92960299  0.96648387  0.16837092    -0.86320
O1965       O  0.53142949  0.92974382  0.12959734    -0.87990
O1966       O  0.94230151  0.87972451  0.09946923    -0.86740
O1967       O  0.89978233  0.89835387  0.06832913    -0.86330
O1968       O  0.55438748  0.98142147  0.11757091    -0.87700
O1969       O  0.95900895  0.92092549  0.15660935    -0.86180
O1970       O  0.51430191  0.89086379  0.07001967    -0.85770
Zr1971     Zr  0.98028358  0.92799036  0.09939929     2.84310
O1972       O  0.92854393  0.95121593  0.09887970    -1.07740
O1973       O  0.51637171  0.96092601  0.06367425    -1.08470
C1974       C  0.52750381  0.88936612  0.04048614     1.06960
C1975       C  0.94139468  0.93774292  0.17609397     1.06900
C1976       C  0.55418543  0.95194047  0.13180502     1.09880
C1977       C  0.91395502  0.87587734  0.08644884     1.07660
H1978       H  0.99106543  0.98032170  0.14089566     0.33220
O1979       O  0.98310385  0.98117028  0.11841963    -1.28700
H1980       H  0.96050313  0.90867065  0.03733099     0.32890
O1981       O  0.96155651  0.93065434  0.04478391    -1.30370
O1982       O  0.90218826  0.55662002  0.10982121    -0.86150
O1983       O  0.99780927  0.00141569  0.45776786    -0.87640
O1984       O  0.51445904  0.54456883  0.13226523    -0.86220
O1985       O  0.86108738  0.95440292  0.08267073    -0.86270
O1986       O  0.91443390  0.92146682  0.99464951    -0.85980
O1987       O  0.56705654  0.51341008  0.04434603    -0.85790
O1988       O  0.98443952  0.58717551  0.02768581    -0.86160
O1989       O  0.89429136  0.53740132  0.99819308    -0.85620
O1990       O  0.52655189  0.57066879  0.06108722    -0.86690
O1991       O  0.87314889  0.98491379  0.00945886    -0.85850
O1992       O  0.96123227  0.53957808  0.15258542    -0.86240
O1993       O  0.55339818  0.98299318  0.00057586    -0.85970
O1994       O  0.96665029  0.93121748  0.47309372    -0.85620
O1995       O  0.87430624  0.98636983  0.12544181    -0.86020
O1996       O  0.91358271  0.57720690  0.05595013    -0.86320
O1997       O  0.96668682  0.54570081  0.46954599    -0.87660
Zr1998     Zr  0.93098275  0.00423702  0.11754678     2.83100
Zr1999     Zr  0.99693077  0.96434744  0.00920043     2.83500
Zr2000     Zr  0.51845082  0.51397939  0.08206037     2.84090
Zr2001     Zr  0.90956128  0.95336105  0.04452976     2.83360
Zr2002     Zr  0.94671689  0.53926714  0.02710301     2.84220
O2003       O  0.94438747  0.98639202  0.00791258    -1.08230
O2004       O  0.96642347  0.53699524  0.08150958    -1.07730
C2005       C  0.89994514  0.57885915  0.08522096     1.06930
C2006       C  0.98467474  0.52947878  0.44982034     1.09550
C2007       C  0.99090180  0.55105545  0.15294514     1.07100
C2008       C  0.85449453  0.96804916  0.11024843     1.07460
C2009       C  0.93796452  0.91755021  0.47287990     1.07050
C2010       C  0.57325683  0.00100467  0.01605823     1.06600
C2011       C  0.51175798  0.59224090  0.04225394     1.07020
C2012       C  0.87176161  0.51474336  0.99656001     1.06540
H2013       H  0.51346704  0.53103131  0.01311808     0.33210
O2014       O  0.99898469  0.51711884  0.02780564    -1.29330
H2015       H  0.88975567  0.51521349  0.06325066     0.33240
O2016       O  0.91144919  0.00630060  0.06317494    -1.30710
C2017       C  0.91217384  0.89449571  0.21185646    -0.11930
C2018       C  0.93402884  0.92163958  0.20962366     0.05070
C2019       C  0.95300571  0.92811048  0.23736312    -0.07220
C2020       C  0.95048376  0.90609554  0.26613239    -0.07960
C2021       C  0.92978912  0.87798274  0.26771638    -0.02510
C2022       C  0.90957362  0.87258284  0.24061553     0.04300
N2023       N  0.88668440  0.84508141  0.24170386     0.66810
H2024       H  0.89773706  0.88981238  0.19047821     0.15710
H2025       H  0.96575415  0.91016496  0.28710908     0.15420
N2026       N  0.97609393  0.95550257  0.23619243     0.74510
O2027       O  0.87807654  0.83342845  0.21492195    -0.38940
O2028       O  0.87252461  0.83441586  0.26897627    -0.38880
O2029       O  0.97125639  0.98166822  0.21828240    -0.39580
O2030       O  0.50015573  0.95467239  0.25520447    -0.39650
C2031       C  0.96197055  0.88026378  0.43335749    -0.11930
C2032       C  0.93356389  0.89489159  0.44583616     0.05070
C2033       C  0.90324812  0.88828631  0.43122847    -0.07220
C2034       C  0.90260039  0.86835729  0.40393242    -0.07960
C2035       C  0.93147814  0.85538646  0.39068890    -0.02510
C2036       C  0.96134011  0.86113102  0.40597250     0.04300
N2037       N  0.99175576  0.85050572  0.39203816     0.66810
H2038       H  0.98542588  0.88443543  0.44438091     0.15710
H2039       H  0.87977233  0.86471552  0.39154114     0.15420
N2040       N  0.87353137  0.90325795  0.44185502     0.74510
O2041       O  0.51408197  0.87150061  0.38305538    -0.38940
O2042       O  0.99843320  0.82033115  0.39420579    -0.38880
O2043       O  0.87285867  0.93395891  0.44432996    -0.39580
O2044       O  0.84686682  0.88691785  0.44323206    -0.39650
C2045       C  0.98157800  0.61559394  0.21588101    -0.11930
C2046       C  0.50867222  0.60936442  0.23583596     0.05070
C2047       C  0.53217688  0.58662510  0.22583959    -0.07220
C2048       C  0.52635149  0.56864859  0.19789637    -0.07960
C2049       C  0.99815303  0.57351989  0.17923755    -0.02510
C2050       C  0.97629694  0.59855112  0.18731986     0.04300
N2051       N  0.94901420  0.60731324  0.16677493     0.66810
H2052       H  0.96379719  0.63332124  0.22315558     0.15710
H2053       H  0.54358354  0.55020159  0.19106417     0.15420
N2054       N  0.56179600  0.58144420  0.24379180     0.74510
O2055       O  0.92443370  0.62090903  0.17921453    -0.38940
O2056       O  0.95141758  0.60622312  0.13539184    -0.38880
O2057       O  0.57538280  0.55386875  0.24459978    -0.39580
O2058       O  0.57601479  0.60509769  0.25647917    -0.39650
C2059       C  0.52256393  0.54986847  0.40229676    -0.11930
C2060       C  0.99045043  0.54549130  0.41576658     0.05070
C2061       C  0.96460923  0.56179597  0.39941921    -0.07220
C2062       C  0.97164704  0.58398687  0.37178948    -0.07960
C2063       C  0.50373873  0.58987605  0.35928269    -0.02510
C2064       C  0.52974261  0.57203579  0.37403597     0.04300
N2065       N  0.56327170  0.57688641  0.36186244     0.66810
H2066       H  0.54232216  0.53753921  0.41513783     0.15710
H2067       H  0.95171441  0.59663905  0.35953238     0.15420
N2068       N  0.93106488  0.55607577  0.41062176     0.74510
O2069       O  0.58437845  0.55565906  0.36960033    -0.38940
O2070       O  0.57258513  0.60320927  0.34532472    -0.38880
O2071       O  0.91071049  0.57889806  0.40717239    -0.39580
O2072       O  0.92097577  0.52740131  0.42065806    -0.39650
C2073       C  0.94301537  0.73851944  0.33120496    -0.11930
C2074       C  0.96041921  0.76613098  0.31625470     0.05070
C2075       C  0.98941490  0.76139935  0.29690555    -0.07220
C2076       C  0.49970549  0.72917388  0.29257343    -0.07960
C2077       C  0.98234208  0.70159184  0.30768512    -0.02510
C2078       C  0.95328079  0.70636922  0.32685812     0.04300
N2079       N  0.93322322  0.67900032  0.34094001     0.66810
H2080       H  0.92053263  0.74203843  0.34548538     0.15690
H2081       H  0.52219032  0.72557129  0.27833392     0.15420
N2082       N  0.50943170  0.78879426  0.28276572     0.74510
O2083       O  0.91769930  0.68090652  0.36848010    -0.38940
O2084       O  0.92780924  0.65456575  0.32413176    -0.38880
O2085       O  0.51412673  0.81366867  0.29915245    -0.39580
O2086       O  0.52567478  0.78652223  0.25570369    -0.39650
C2087       C  0.62850613  0.98317387  0.50129063    -0.11930
C2088       C  0.60530391  0.50797634  0.49902241     0.05070
C2089       C  0.61040619  0.53543076  0.47537989    -0.07220
C2090       C  0.63829761  0.53654781  0.45377696    -0.07960
C2091       C  0.66106217  0.51130845  0.45555707    -0.02510
C2092       C  0.65647690  0.98441624  0.47992471     0.04300
N2093       N  0.67929909  0.95787925  0.48286875     0.66810
H2094       H  0.62392605  0.96185202  0.01881951     0.15710
H2095       H  0.64253979  0.55736090  0.43555590     0.15420
N2096       N  0.58751216  0.56190358  0.47256331     0.74510
O2097       O  0.68206851  0.94148035  0.51061432    -0.38940
O2098       O  0.69439325  0.94858664  0.45736423    -0.38880
O2099       O  0.57075287  0.56935289  0.99778151    -0.39580
O2100       O  0.58669115  0.58039780  0.44587095    -0.39650
C2101       C  0.78235485  0.51042405  0.47903259    -0.11930
C2102       C  0.78146829  0.52349052  0.44562184     0.05070
C2103       C  0.81054908  0.53798110  0.42999878    -0.07220
C2104       C  0.83992685  0.53670890  0.44756960    -0.07960
C2105       C  0.84054229  0.52264216  0.48053830    -0.02510
C2106       C  0.81097057  0.51108669  0.99691812     0.04300
N2107       N  0.80968998  0.50029626  0.03194781     0.66810
H2108       H  0.76054726  0.49924855  0.49154821     0.15710
H2109       H  0.86239429  0.54622934  0.43533420     0.15420
N2110       N  0.81073433  0.55425270  0.39685734     0.74510
O2111       O  0.82499380  0.51651878  0.05233092    -0.38940
O2112       O  0.79020407  0.97730158  0.04312053    -0.38880
O2113       O  0.78702864  0.57178684  0.38774114    -0.39580
O2114       O  0.83612626  0.55427159  0.37800904    -0.39650
C2115       C  0.63752250  0.92556425  0.16088424    -0.11930
C2116       C  0.64232691  0.94741640  0.18602658     0.05070
C2117       C  0.61567058  0.96653548  0.19592711    -0.07220
C2118       C  0.58589254  0.96439053  0.18002595    -0.07960
C2119       C  0.58199746  0.94451217  0.15336052    -0.02510
C2120       C  0.60789474  0.92418018  0.14398172     0.04300
N2121       N  0.60551002  0.90377915  0.11627161     0.66810
H2122       H  0.65736017  0.91004654  0.15366234     0.15710
H2123       H  0.56641003  0.98065483  0.18669208     0.15420
N2124       N  0.61928240  0.99108383  0.21925730     0.74510
O2125       O  0.63088706  0.89727964  0.09937766    -0.38940
O2126       O  0.57878187  0.88959536  0.11052439    -0.38880
O2127       O  0.63501588  0.01741456  0.21031187    -0.39580
O2128       O  0.60162494  0.98936761  0.24580581    -0.39650
C2129       C  0.78265785  0.93135388  0.16398085    -0.11930
C2130       C  0.76382568  0.95946270  0.16706519     0.05070
C2131       C  0.77315032  0.98926293  0.14847190    -0.07220
C2132       C  0.80222661  0.99046132  0.12879487    -0.07960
C2133       C  0.82179910  0.96276927  0.12658771    -0.02510
C2134       C  0.81173689  0.93246563  0.14400167     0.04300
N2135       N  0.83100731  0.90319157  0.14307970     0.66810
H2136       H  0.77510859  0.90863779  0.17822500     0.15710
H2137       H  0.81042467  0.51372123  0.11607899     0.15420
N2138       N  0.75398543  0.51855585  0.14944027     0.74510
O2139       O  0.81767462  0.87513589  0.14987385    -0.38940
O2140       O  0.86165672  0.90507995  0.13805078    -0.38880
O2141       O  0.73801864  0.52478393  0.17562794    -0.39580
O2142       O  0.75486457  0.53965780  0.12464918    -0.39650
C2143       C  0.73180572  0.95428204  0.30357148    -0.11930
C2144       C  0.71423202  0.97370822  0.28027780     0.05070
C2145       C  0.69900231  0.50240531  0.29038522    -0.07220
C2146       C  0.70043079  0.51006195  0.32382731    -0.07960
C2147       C  0.71762385  0.49053700  0.34727788    -0.02510
C2148       C  0.73358123  0.96216858  0.33711720     0.04300
N2149       N  0.75051649  0.94056120  0.36049492     0.66810
H2150       H  0.74328294  0.93222499  0.29577134     0.15710
H2151       H  0.68896081  0.53220226  0.33145555     0.15420
N2152       N  0.68340560  0.52482453  0.26679460     0.74510
O2153       O  0.73986942  0.93527511  0.39039947    -0.38940
O2154       O  0.77412624  0.92392213  0.35042715    -0.38880
O2155       O  0.65938180  0.54130038  0.27616243    -0.39580
O2156       O  0.69654724  0.53192364  0.23813589    -0.39650
C2157       C  0.88600289  0.63580076  0.06541148    -0.11930
C2158       C  0.88066401  0.60908194  0.08961333     0.05070
C2159       C  0.85588207  0.61162946  0.11489262    -0.07220
C2160       C  0.83733842  0.64038202  0.11501975    -0.07960
C2161       C  0.84309274  0.66669795  0.09075108    -0.02510
C2162       C  0.86726149  0.66409980  0.06520946     0.04300
N2163       N  0.87266308  0.68961646  0.03853229     0.66810
H2164       H  0.90458793  0.63451356  0.04567474     0.15710
H2165       H  0.81890963  0.64259558  0.13476172     0.15420
N2166       N  0.84882214  0.58556196  0.14033191     0.74510
O2167       O  0.90070744  0.69418936  0.02455233    -0.38940
O2168       O  0.84883420  0.70504394  0.02626641    -0.38880
O2169       O  0.86988657  0.57816277  0.16180455    -0.39580
O2170       O  0.81959284  0.57553149  0.14598982    -0.39650
C2171       C  0.87027812  0.83974459  0.06755474    -0.11930
C2172       C  0.89489872  0.84396211  0.09077698     0.05070
C2173       C  0.89938062  0.81816456  0.11587325    -0.07220
C2174       C  0.87789881  0.79033344  0.11799868    -0.07960
C2175       C  0.85253962  0.78725551  0.09525986    -0.02510
C2176       C  0.84991761  0.81188060  0.06890974     0.04300
N2177       N  0.82879479  0.80793282  0.04150941     0.66810
H2178       H  0.86751040  0.85783315  0.04666302     0.15710
H2179       H  0.88090423  0.77103947  0.13771386     0.15420
N2180       N  0.92540180  0.81923875  0.13896588     0.74510
O2181       O  0.81516472  0.83274786  0.02773804    -0.38940
O2182       O  0.82951801  0.78168435  0.02665735    -0.38880
O2183       O  0.92873959  0.84351825  0.15643020    -0.39580
O2184       O  0.94203818  0.79390635  0.14545369    -0.39650
C2185       C  0.53021628  0.64174925  0.00499317    -0.11930
C2186       C  0.52889091  0.62469735  0.03687007     0.05070
C2187       C  0.54834562  0.63622119  0.06229969    -0.07220
C2188       C  0.57013076  0.66262514  0.05478540    -0.07960
C2189       C  0.57249970  0.67908612  0.02286675    -0.02510
C2190       C  0.55171548  0.66913986  0.49759546     0.04300
N2191       N  0.55266794  0.68564042  0.46444775     0.66810
H2192       H  0.01563451  0.63271047  0.48537305     0.15710
H2193       H  0.58438761  0.67146890  0.07471579     0.15420
N2194       N  0.54545933  0.62210747  0.09625077     0.74510
O2195       O  0.52843802  0.68345741  0.44590031    -0.38940
O2196       O  0.57840647  0.70042980  0.45256354    -0.38880
O2197       O  0.57045097  0.61947717  0.11389483    -0.39580
O2198       O  0.51748659  0.61659915  0.11002381    -0.39650
C2199       C  0.54895871  0.83560906  0.06254913    -0.11930
C2200       C  0.54664844  0.85921155  0.03514239     0.05070
C2201       C  0.56128064  0.85231267  0.50386912    -0.07220
C2202       C  0.57615074  0.82183349  0.50065980    -0.07960
C2203       C  0.57787793  0.79861994  0.02812484    -0.02510
C2204       C  0.56445574  0.80566415  0.05958793     0.04300
N2205       N  0.56648322  0.78301221  0.08886149     0.66810
H2206       H  0.53814800  0.84006619  0.08678033     0.15710
H2207       H  0.58740446  0.81661909  0.47680856     0.15420
N2208       N  0.56231287  0.87596500  0.47546833     0.74510
O2209       O  0.56842299  0.79381154  0.11748144    -0.38940
O2210       O  0.56327322  0.75235029  0.08679626    -0.38880
O2211       O  0.57746378  0.90309887  0.47707015    -0.39580
O2212       O  0.55471705  0.86709037  0.44716226    -0.39650
C2213       C  0.70001376  0.75894407  0.04066969    -0.11930
C2214       C  0.67739564  0.73379276  0.05152953     0.05070
C2215       C  0.68750380  0.70857615  0.07504776    -0.07220
C2216       C  0.71992565  0.70885000  0.08598579    -0.07960
C2217       C  0.74272005  0.73412386  0.07494533    -0.02510
C2218       C  0.73186581  0.75977338  0.05232275     0.04300
N2219       N  0.75268901  0.78666738  0.03967127     0.66810
H2220       H  0.69303913  0.77836016  0.02246426     0.15710
H2221       H  0.72709733  0.68946094  0.10409332     0.15420
N2222       N  0.66506237  0.68340393  0.08932211     0.74510
O2223       O  0.76357038  0.78696960  0.00980732    -0.38940
O2224       O  0.74992645  0.81374530  0.05280882    -0.38880
O2225       O  0.67413312  0.65397025  0.09345153    -0.39580
O2226       O  0.63788776  0.69117804  0.10201169    -0.39650
C2227       C  0.59577687  0.76808742  0.02441091     0.03470
C2228       C  0.62779517  0.76582509  0.53558957    -0.12680
C2229       C  0.64362923  0.73545135  0.53818457     0.00970
C2230       C  0.62654938  0.70725901  0.52917012    -0.11210
C2231       C  0.59370860  0.70911833  0.01953967     0.03460
C2232       C  0.57892609  0.73983142  0.01596920    -0.10630
H2233       H  0.63969496  0.78763330  0.54393444     0.09050
H2234       H  0.63789190  0.68344294  0.53166381     0.06580
H2235       H  0.55320902  0.74125991  0.01027141     0.06430
C2236       C  0.82615671  0.69803595  0.59393796     0.03470
C2237       C  0.79285024  0.70073442  0.58702483    -0.12680
C2238       C  0.77766450  0.73160232  0.58558701     0.00970
C2239       C  0.79673016  0.75951912  0.59240798    -0.11210
C2240       C  0.83073677  0.75726732  0.59725445     0.03460
C2241       C  0.84484380  0.72626209  0.59908019    -0.10630
H2242       H  0.77937105  0.67893946  0.58088951     0.09050
H2243       H  0.78569701  0.78333473  0.59276630     0.06580
H2244       H  0.87101582  0.72422121  0.60209844     0.06430
C2245       C  0.67566706  0.95132690  0.69982696     0.03470
C2246       C  0.67985324  0.95620848  0.73390017    -0.12680
C2247       C  0.71098220  0.96322367  0.74584204     0.00970
C2248       C  0.73856785  0.96269943  0.72416263    -0.11210
C2249       C  0.73494377  0.95714034  0.69033526     0.03460
C2250       C  0.70363585  0.95186559  0.67824521    -0.10630
H2251       H  0.65892647  0.95526812  0.75123983     0.09050
H2252       H  0.76264729  0.96821060  0.73316577     0.06580
H2253       H  0.70114633  0.94917376  0.65174270     0.06430
C2254       C  0.75002297  0.51992778  0.92821105     0.03470
C2255       C  0.74910434  0.50855400  0.89588558    -0.12680
C2256       C  0.71895740  0.50128697  0.88175769     0.00970
C2257       C  0.68971305  0.50420091  0.90062897    -0.11210
C2258       C  0.69052687  0.51433687  0.93320086     0.03460
C2259       C  0.72030879  0.52362109  0.94613404    -0.10630
H2260       H  0.77168326  0.50465025  0.88196127     0.09050
H2261       H  0.66651425  0.49717467  0.89054486     0.06580
H2262       H  0.72029873  0.53201669  0.97117267     0.06430
C2263       C  0.50918641  0.62349438  0.76900808     0.03470
C2264       C  0.50109343  0.65659934  0.77236810    -0.12680
C2265       C  0.49553301  0.66816287  0.80421119     0.00970
C2266       C  0.49984770  0.64676519  0.83278579    -0.11210
C2267       C  0.50785944  0.61376108  0.82978193     0.03460
C2268       C  0.51249686  0.60230414  0.79797254    -0.10630
H2269       H  0.49729278  0.67284984  0.75022877     0.09050
H2270       H  0.49492257  0.65521627  0.85744312     0.06580
H2271       H  0.51629778  0.57627212  0.79582448     0.06430
C2272       C  0.93152539  0.84201664  0.85738481     0.03470
C2273       C  0.94104888  0.80963869  0.85296258    -0.12680
C2274       C  0.94726423  0.79941760  0.82062977     0.00970
C2275       C  0.94204738  0.82147095  0.79267956    -0.11210
C2276       C  0.93181927  0.85368434  0.79693518     0.03460
C2277       C  0.92662367  0.86371134  0.82930411    -0.10630
H2278       H  0.94519575  0.79294336  0.87467820     0.09050
H2279       H  0.94691161  0.81391391  0.76765778     0.06580
H2280       H  0.92009508  0.88895802  0.83266028     0.06430
O2281       O  0.52462993  0.91156597  0.51600291    -0.86150
O2282       O  0.92960212  0.96648406  0.66837055    -0.86320
O2283       O  0.53142982  0.92974341  0.62959761    -0.87990
O2284       O  0.94230120  0.87972505  0.59946919    -0.86740
O2285       O  0.89978179  0.89835453  0.56832935    -0.86330
O2286       O  0.55438769  0.98142126  0.61757151    -0.87700
O2287       O  0.95900870  0.92092593  0.65660927    -0.86180
O2288       O  0.51430222  0.89086304  0.57001944    -0.85770
Zr2289     Zr  0.98028334  0.92799080  0.59939924     2.84310
O2290       O  0.92854388  0.95121672  0.59887920    -1.07740
O2291       O  0.51637149  0.96092590  0.56367418    -1.08470
C2292       C  0.52750401  0.88936545  0.54048590     1.06960
C2293       C  0.94139419  0.93774325  0.67609379     1.06900
C2294       C  0.55418557  0.95194021  0.63180544     1.09880
C2295       C  0.91395466  0.87587790  0.58644889     1.07660
H2296       H  0.99106421  0.98032225  0.64089453     0.33220
O2297       O  0.98310258  0.98117081  0.61841829    -1.28700
H2298       H  0.96050238  0.90867221  0.53733145     0.32890
O2299       O  0.96155577  0.93065605  0.54478440    -1.30370
O2300       O  0.90218820  0.55661968  0.60982107    -0.86150
O2301       O  0.99780957  0.00141545  0.95776756    -0.87640
O2302       O  0.51445934  0.54456892  0.63226537    -0.86220
O2303       O  0.86108671  0.95440271  0.58267118    -0.86270
O2304       O  0.91443344  0.92146770  0.49464955    -0.85980
O2305       O  0.56705662  0.51341015  0.54434602    -0.85790
O2306       O  0.98443985  0.58717547  0.52768557    -0.86160
O2307       O  0.89429158  0.53740133  0.49819330    -0.85620
O2308       O  0.52655227  0.57066877  0.56108717    -0.86690
O2309       O  0.87314862  0.98491383  0.50945779    -0.85850
O2310       O  0.96123245  0.53957793  0.65258563    -0.86240
O2311       O  0.55339857  0.98299323  0.50057573    -0.85970
O2312       O  0.96665050  0.93121720  0.97309339    -0.85620
O2313       O  0.87430563  0.98636937  0.62544242    -0.86020
O2314       O  0.91358263  0.57720656  0.55594996    -0.86320
O2315       O  0.96668643  0.54570073  0.96954606    -0.87660
Zr2316     Zr  0.93098161  0.00423745  0.61754634     2.83100
Zr2317     Zr  0.99693051  0.96434777  0.50920071     2.83500
Zr2318     Zr  0.51845110  0.51397938  0.58206054     2.84090
Zr2319     Zr  0.90956031  0.95336201  0.54452997     2.83360
Zr2320     Zr  0.94671735  0.53926710  0.52710289     2.84220
O2321       O  0.94438721  0.98639227  0.50791343    -1.08230
O2322       O  0.96642367  0.53699555  0.58150972    -1.07730
C2323       C  0.89994503  0.57885881  0.58522080     1.06930
C2324       C  0.98467453  0.52947880  0.94982044     1.09550
C2325       C  0.99090192  0.55105544  0.65294524     1.07100
C2326       C  0.85449398  0.96804876  0.61024896     1.07460
C2327       C  0.93796481  0.91754974  0.97287967     1.07050
C2328       C  0.57325711  0.00100481  0.51605819     1.06600
C2329       C  0.51175851  0.59224084  0.54225371     1.07020
C2330       C  0.87176183  0.51474336  0.49656017     1.06540
H2331       H  0.51346840  0.53103155  0.51311744     0.33210
O2332       O  0.99898537  0.51711904  0.52780525    -1.29330
H2333       H  0.88975522  0.51521356  0.56325056     0.33240
O2334       O  0.91145054  0.00630019  0.56317494    -1.30710
C2335       C  0.91217364  0.89449585  0.71185641    -0.11930
C2336       C  0.93402853  0.92163983  0.70962357     0.05070
C2337       C  0.95300559  0.92811060  0.73736298    -0.07220
C2338       C  0.95048373  0.90609560  0.76613222    -0.07960
C2339       C  0.92978911  0.87798278  0.76771627    -0.02510
C2340       C  0.90957356  0.87258291  0.74061546     0.04300
N2341       N  0.88668438  0.84508145  0.74170382     0.66810
H2342       H  0.89773680  0.88981250  0.69047820     0.15710
H2343       H  0.96575419  0.91016499  0.78710888     0.15420
N2344       N  0.97609385  0.95550264  0.73619229     0.74510
O2345       O  0.87807650  0.83342848  0.71492193    -0.38940
O2346       O  0.87252464  0.83441589  0.76897626    -0.38880
O2347       O  0.97125632  0.98166831  0.71828230    -0.39580
O2348       O  0.50015607  0.95467227  0.75520477    -0.39650
C2349       C  0.96197063  0.88026349  0.93335727    -0.11930
C2350       C  0.93356404  0.89489134  0.94583591     0.05070
C2351       C  0.90324821  0.88828621  0.93122827    -0.07220
C2352       C  0.90260039  0.86835719  0.90393225    -0.07960
C2353       C  0.93147813  0.85538631  0.89068874    -0.02510
C2354       C  0.96134013  0.86113078  0.90597231     0.04300
N2355       N  0.99175575  0.85050546  0.89203797     0.66810
H2356       H  0.98542598  0.88443505  0.94438070     0.15710
H2357       H  0.87977231  0.86471547  0.89154098     0.15420
N2358       N  0.87353151  0.90325793  0.94185489     0.74510
O2359       O  0.51408184  0.87150089  0.88305557    -0.38940
O2360       O  0.99843326  0.82033091  0.89420591    -0.38880
O2361       O  0.87285891  0.93395887  0.94432995    -0.39580
O2362       O  0.84686691  0.88691790  0.94323197    -0.39650
C2363       C  0.98157799  0.61559394  0.71588104    -0.11930
C2364       C  0.50867221  0.60936450  0.73583603     0.05070
C2365       C  0.53217690  0.58662521  0.72583969    -0.07220
C2366       C  0.52635163  0.56864876  0.69789646    -0.07960
C2367       C  0.99815309  0.57351994  0.67923758    -0.02510
C2368       C  0.97629696  0.59855113  0.68731987     0.04300
N2369       N  0.94901420  0.60731322  0.66677495     0.66810
H2370       H  0.96379715  0.63332122  0.72315563     0.15710
H2371       H  0.54358370  0.55020177  0.69106430     0.15420
N2372       N  0.56179597  0.58144426  0.74379196     0.74510
O2373       O  0.92443369  0.62090900  0.67921455    -0.38940
O2374       O  0.95141755  0.60622305  0.63539187    -0.38880
O2375       O  0.57538279  0.55386881  0.74459984    -0.39580
O2376       O  0.57601483  0.60509776  0.75647924    -0.39650
C2377       C  0.52256377  0.54986857  0.90229700    -0.11930
C2378       C  0.99045034  0.54549136  0.91576670     0.05070
C2379       C  0.96460917  0.56179600  0.89941926    -0.07220
C2380       C  0.97164700  0.58398685  0.87178950    -0.07960
C2381       C  0.50373865  0.58987603  0.85928276    -0.02510
C2382       C  0.52974251  0.57203579  0.87403611     0.04300
N2383       N  0.56327160  0.57688637  0.86186254     0.66810
H2384       H  0.54232197  0.53753928  0.91513810     0.15710
H2385       H  0.95171439  0.59663902  0.85953237     0.15420
N2386       N  0.93106482  0.55607578  0.91062176     0.74510
O2387       O  0.58437833  0.55565900  0.86960036    -0.38940
O2388       O  0.57258503  0.60320921  0.84532478    -0.38880
O2389       O  0.91071043  0.57889808  0.90717241    -0.39580
O2390       O  0.92097570  0.52740132  0.92065804    -0.39650
C2391       C  0.94301537  0.73851942  0.83120492    -0.11930
C2392       C  0.96041921  0.76613095  0.81625465     0.05070
C2393       C  0.98941491  0.76139932  0.79690553    -0.07220
C2394       C  0.49970548  0.72917391  0.79257345    -0.07960
C2395       C  0.98234208  0.70159181  0.80768512    -0.02510
C2396       C  0.95328079  0.70636920  0.82685810     0.04300
N2397       N  0.93322321  0.67900030  0.84093998     0.66810
H2398       H  0.92053263  0.74203841  0.84548534     0.15690
H2399       H  0.52219029  0.72557130  0.77833392     0.15420
N2400       N  0.50943174  0.78879428  0.78276574     0.74510
O2401       O  0.91769930  0.68090650  0.86848007    -0.38940
O2402       O  0.92780924  0.65456572  0.82413173    -0.38880
O2403       O  0.51412681  0.81366868  0.79915247    -0.39580
O2404       O  0.52567479  0.78652223  0.75570370    -0.39650
C2405       C  0.62850648  0.98317460  0.00129121    -0.11930
C2406       C  0.60530384  0.50797636  0.99902232     0.05070
C2407       C  0.61040598  0.53543063  0.97537953    -0.07220
C2408       C  0.63829747  0.53654768  0.95377668    -0.07960
C2409       C  0.66106218  0.51130847  0.95555703    -0.02510
C2410       C  0.65647727  0.98441689  0.97992529     0.04300
N2411       N  0.67929978  0.95788021  0.98286982     0.66810
H2412       H  0.62392528  0.96185088  0.51881831     0.15710
H2413       H  0.64253957  0.55736063  0.93555544     0.15420
N2414       N  0.58751177  0.56190329  0.97256257     0.74510
O2415       O  0.68206935  0.94148181  0.01061565    -0.38940
O2416       O  0.69439383  0.94858712  0.95736544    -0.38880
O2417       O  0.57075417  0.56935365  0.49778268    -0.39580
O2418       O  0.58669136  0.58039779  0.94587034    -0.39650
C2419       C  0.78235474  0.51042394  0.97903245    -0.11930
C2420       C  0.78146822  0.52349050  0.94562175     0.05070
C2421       C  0.81054902  0.53798112  0.92999873    -0.07220
C2422       C  0.83992673  0.53670895  0.94756957    -0.07960
C2423       C  0.84054211  0.52264215  0.98053822    -0.02510
C2424       C  0.81097073  0.51108681  0.49691824     0.04300
N2425       N  0.80969019  0.50029643  0.53194795     0.66810
H2426       H  0.76054715  0.49924837  0.99154803     0.15710
H2427       H  0.86239418  0.54622943  0.93533422     0.15420
N2428       N  0.81073433  0.55425270  0.89685728     0.74510
O2429       O  0.82499482  0.51651840  0.55233092    -0.38940
O2430       O  0.79020407  0.97730200  0.54312055    -0.38880
O2431       O  0.78702869  0.57178689  0.88774105    -0.39580
O2432       O  0.83612633  0.55427160  0.87800907    -0.39650
C2433       C  0.63752252  0.92556431  0.66088422    -0.11930
C2434       C  0.64232691  0.94741646  0.68602657     0.05070
C2435       C  0.61567061  0.96653555  0.69592712    -0.07220
C2436       C  0.58589255  0.96439049  0.68002612    -0.07960
C2437       C  0.58199747  0.94451198  0.65336084    -0.02510
C2438       C  0.60789474  0.92418014  0.64398182     0.04300
N2439       N  0.60550996  0.90377921  0.61627162     0.66810
H2440       H  0.65736021  0.91004666  0.65366225     0.15710
H2441       H  0.56641003  0.98065478  0.68669226     0.15420
N2442       N  0.61928241  0.99108391  0.71925730     0.74510
O2443       O  0.63088699  0.89727969  0.59937765    -0.38940
O2444       O  0.57878180  0.88959543  0.61052436    -0.38880
O2445       O  0.63501579  0.01741468  0.71031183    -0.39580
O2446       O  0.60162493  0.98936767  0.74580579    -0.39650
C2447       C  0.78265756  0.93135369  0.66398116    -0.11930
C2448       C  0.76382547  0.95946260  0.66706535     0.05070
C2449       C  0.77315009  0.98926280  0.64847199    -0.07220
C2450       C  0.80222633  0.99046106  0.62879500    -0.07960
C2451       C  0.82179871  0.96276895  0.62658807    -0.02510
C2452       C  0.81173658  0.93246537  0.64400204     0.04300
N2453       N  0.83100711  0.90319136  0.64308008     0.66810
H2454       H  0.77510827  0.90863764  0.67822537     0.15710
H2455       H  0.81042466  0.51372127  0.61607882     0.15420
N2456       N  0.75398543  0.51855584  0.64944020     0.74510
O2457       O  0.81767449  0.87513564  0.64987416    -0.38940
O2458       O  0.86165649  0.90507981  0.63805100    -0.38880
O2459       O  0.73801867  0.52478390  0.67562789    -0.39580
O2460       O  0.75486452  0.53965778  0.62464912    -0.39650
C2461       C  0.73180560  0.95428208  0.80357148    -0.11930
C2462       C  0.71423190  0.97370827  0.78027780     0.05070
C2463       C  0.69900230  0.50240532  0.79038519    -0.07220
C2464       C  0.70043080  0.51006197  0.82382727    -0.07960
C2465       C  0.71762384  0.49053701  0.84727785    -0.02510
C2466       C  0.73358114  0.96216865  0.83711718     0.04300
N2467       N  0.75051635  0.94056127  0.86049493     0.66810
H2468       H  0.74328280  0.93222502  0.79577136     0.15710
H2469       H  0.68896084  0.53220229  0.83145551     0.15420
N2470       N  0.68340560  0.52482455  0.76679457     0.74510
O2471       O  0.73986926  0.93527522  0.89039947    -0.38940
O2472       O  0.77412611  0.92392218  0.85042720    -0.38880
O2473       O  0.65938181  0.54130041  0.77616241    -0.39580
O2474       O  0.69654725  0.53192365  0.73813586    -0.39650
C2475       C  0.88600288  0.63580060  0.56541140    -0.11930
C2476       C  0.88066393  0.60908171  0.58961319     0.05070
C2477       C  0.85588207  0.61162935  0.61489254    -0.07220
C2478       C  0.83733849  0.64038197  0.61501973    -0.07960
C2479       C  0.84309282  0.66669793  0.59075109    -0.02510
C2480       C  0.86726155  0.66409973  0.56520945     0.04300
N2481       N  0.87266314  0.68961641  0.53853229     0.66810
H2482       H  0.90458790  0.63451337  0.54567464     0.15710
H2483       H  0.81890974  0.64259556  0.63476173     0.15420
N2484       N  0.84882213  0.58556189  0.64033186     0.74510
O2485       O  0.90070749  0.69418934  0.52455234    -0.38940
O2486       O  0.84883425  0.70504392  0.52626646    -0.38880
O2487       O  0.86988656  0.57816274  0.66180451    -0.39580
O2488       O  0.81959282  0.57553148  0.64598981    -0.39650
C2489       C  0.87027800  0.83974486  0.56755472    -0.11930
C2490       C  0.89489856  0.84396249  0.59077697     0.05070
C2491       C  0.89938061  0.81816484  0.61587315    -0.07220
C2492       C  0.87789886  0.79033365  0.61799857    -0.07960
C2493       C  0.85253964  0.78725566  0.59525980    -0.02510
C2494       C  0.84991759  0.81188078  0.56890971     0.04300
N2495       N  0.82879475  0.80793295  0.54150941     0.66810
H2496       H  0.86751022  0.85783345  0.54666304     0.15710
H2497       H  0.88090436  0.77103966  0.63771371     0.15420
N2498       N  0.92540186  0.81923896  0.63896571     0.74510
O2499       O  0.81516461  0.83274796  0.52773807    -0.38940
O2500       O  0.82951797  0.78168446  0.52665738    -0.38880
O2501       O  0.92873961  0.84351835  0.65643019    -0.39580
O2502       O  0.94203813  0.79390648  0.64545354    -0.39650
C2503       C  0.53021644  0.64174930  0.50499309    -0.11930
C2504       C  0.52889122  0.62469735  0.53686995     0.05070
C2505       C  0.54834577  0.63622125  0.56229963    -0.07220
C2506       C  0.57013085  0.66262523  0.55478536    -0.07960
C2507       C  0.57249980  0.67908616  0.52286668    -0.02510
C2508       C  0.55171540  0.66913979  0.99759553     0.04300
N2509       N  0.55266789  0.68564037  0.96444783     0.66810
H2510       H  0.01563443  0.63271044  0.98537309     0.15710
H2511       H  0.58438765  0.67146903  0.57471577     0.15420
N2512       N  0.54545938  0.62210753  0.59625071     0.74510
O2513       O  0.52843797  0.68345741  0.94590038    -0.38940
O2514       O  0.57840640  0.70042982  0.95256367    -0.38880
O2515       O  0.57045099  0.61947710  0.61389481    -0.39580
O2516       O  0.51748661  0.61659916  0.61002365    -0.39650
C2517       C  0.54895887  0.83560876  0.56254899    -0.11930
C2518       C  0.54664859  0.85921111  0.53514220     0.05070
C2519       C  0.56128050  0.85231297  0.00386930    -0.07220
C2520       C  0.57615061  0.82183373  0.00065997    -0.07960
C2521       C  0.57787803  0.79861975  0.52812472    -0.02510
C2522       C  0.56445587  0.80566394  0.55958783     0.04300
N2523       N  0.56648333  0.78301206  0.58886143     0.66810
H2524       H  0.53814818  0.84006589  0.58678021     0.15710
H2525       H  0.58740432  0.81661933  0.97680872     0.15420
N2526       N  0.56231275  0.87596522  0.97546847     0.74510
O2527       O  0.56842298  0.79381146  0.61748137    -0.38940
O2528       O  0.56327322  0.75235015  0.58679625    -0.38880
O2529       O  0.57746378  0.90309903  0.97707024    -0.39580
O2530       O  0.55471706  0.86709049  0.94716240    -0.39650
C2531       C  0.70001375  0.75894405  0.54066969    -0.11930
C2532       C  0.67739565  0.73379273  0.55152952     0.05070
C2533       C  0.68750380  0.70857612  0.57504775    -0.07220
C2534       C  0.71992566  0.70884999  0.58598579    -0.07960
C2535       C  0.74272005  0.73412387  0.57494534    -0.02510
C2536       C  0.73186580  0.75977337  0.55232275     0.04300
N2537       N  0.75268898  0.78666740  0.53967129     0.66810
H2538       H  0.69303912  0.77836014  0.52246424     0.15710
H2539       H  0.72709734  0.68946093  0.60409332     0.15420
N2540       N  0.66506237  0.68340390  0.58932208     0.74510
O2541       O  0.76357034  0.78696964  0.50980733    -0.38940
O2542       O  0.74992640  0.81374530  0.55280886    -0.38880
O2543       O  0.67413315  0.65397023  0.59345154    -0.39580
O2544       O  0.63788775  0.69117800  0.60201164    -0.39650
loop_ 
_geom_bond_atom_site_label_1 
_geom_bond_atom_site_label_2 
_geom_bond_distance 
_geom_bond_site_symmetry_2 
_ccdc_geom_bond_type 
C1            C6   1.398       .  A
C1          C320   1.399       .  A
C1          C613   1.470       .  S
C2            C3   1.406       .  A
C2          C319   1.399       .  A
C2            H7   1.084       .  S
C3            C4   1.408       .  A
C3          C306   1.497       .  S
C4          C323   1.410       .  A
C4            H8   1.083       .  S
C5            C6   1.400       .  A
C5          C322   1.410       .  A
C5          C599   1.480       .  S
C6            H9   1.084       .  S
C10          C11   1.403       .  A
C10          C15   1.399       .  A
C10         C253   1.476       .  S
C11          C12   1.411       .  A
C11          H16   1.083       .  S
C12          C13   1.414       .  A
C12         C309   1.507       .  S
C13          C14   1.413       .  A
C13          H17   1.079       .  S
C14          C15   1.397       .  A
C14         C267   1.493       .  S
C15          H18   1.084       .  S
C19          C20   1.410       .  A
C19          C24   1.409       .  A
C19         C208   1.497       .  S
C20          C21   1.405       .  A
C20          H25   1.082       .  S
C21          C22   1.402       .  A
C21         C236   1.484       .  S
C22          C23   1.403       .  A
C22          H26   1.084       .  S
C23          C24   1.401       .  A
C23         C222   1.477       .  S
C24          H27   1.083       .  S
C28          C29   1.409       .  A
C28          C33   1.406       .  A
C28         C194   1.492       .  S
C29          C30   1.408       .  A
C29          H34   1.083       .  S
C30          C31   1.405       .  A
C30         C239   1.482   1_545  S
C31          C32   1.399       .  A
C31          H35   1.084   1_545  S
C32          C33   1.394       .  A
C32         C183   1.474       .  S
C33          H36   1.084       .  S
C37          C38   1.410       .  A
C37          C42   1.405       .  A
C37         C138   1.488       .  S
C38          C39   1.406   1_455  A
C38          H43   1.084   1_455  S
C39          C40   1.404       .  A
C39        C1441   1.489       .  S
C40          C41   1.403   1_655  A
C40          H44   1.084       .  S
C41          C42   1.398       .  A
C41         C155   1.476       .  S
C42          H45   1.084       .  S
C46          C47   1.405       .  A
C46          C51   1.400       .  A
C46         C127   1.478       .  S
C47          C48   1.407       .  A
C47          H52   1.083       .  S
C48          C49   1.407       .  A
C48         C166   1.489       .  S
C49          C50   1.406       .  A
C49          H53   1.084       .  S
C50          C51   1.399       .  A
C50         C113   1.481       .  S
C51          H54   1.084       .  S
O55          C66   1.293       .  A
O55       Zr1363   2.451   1_455  S
O56          C67   1.295       .  A
O56         Zr90   2.456       .  S
O57          C68   1.293       .  A
O57       Zr1335   2.452   1_455  S
O58          C69   1.297       .  A
O58         Zr63   2.479       .  S
O59          C69   1.285       .  A
O59         Zr93   2.389       .  S
O60          C68   1.290       .  A
O60        Zr728   2.423       .  S
O61          C67   1.288       .  A
O61         Zr63   2.419       .  S
O62          C66   1.290       .  A
O62       Zr1335   2.418   1_455  S
Zr63       O1329   2.452       .  S
Zr63       O1334   2.418       .  S
Zr63         O64   2.334       .  S
Zr63         O73   2.337       .  S
Zr63         O71   2.351       .  S
Zr63       O1337   2.348       .  S
O64         Zr90   2.339       .  S
O64         Zr93   2.332       .  S
O65       Zr1335   2.348   1_455  S
O65       Zr1363   2.342   1_455  S
O65        Zr728   2.335       .  S
C66         C292   1.495       .  S
C67         C110   1.469       .  S
C68         C211   1.473       .  S
C69         C264   1.497       .  S
H70          O71   0.966       .  S
O71         Zr90   2.345       .  S
O71       Zr2000   2.342       .  S
H72          O73   0.965       .  S
O73         Zr91   2.344       .  S
O73         Zr93   2.334       .  S
O74          C97   1.294       .  A
O74        Zr726   2.461       .  S
O75         C734   1.295       .  A
O75        Zr409   2.460       .  S
O76        C1371   1.293   1_455  A
O76         Zr92   2.447       .  S
O77         C100   1.296       .  A
O77         Zr93   2.464       .  S
O78         C419   1.297       .  A
O78         Zr93   2.469   1_556  S
O79         C738   1.295       .  A
O79         Zr92   2.457       .  S
O80        C1375   1.296       .  A
O80         Zr94   2.464       .  S
O81         C104   1.297       .  A
O81         Zr94   2.471   1_556  S
O82         C103   1.288       .  A
O82         Zr92   2.410       .  S
O83         C740   1.287   1_554  A
O83         Zr93   2.405       .  S
O84          C99   1.291       .  A
O84        Zr726   2.432       .  S
O85         C102   1.288       .  A
O85       Zr1363   2.420   1_455  S
O86         C101   1.288       .  A
O86        Zr409   2.406       .  S
O87         C100   1.288       .  A
O87         Zr90   2.417       .  S
O88          C97   1.289       .  A
O88         Zr94   2.410       .  S
O89          C98   1.289       .  A
O89        Zr412   2.414       .  S
Zr90        O710   2.461       .  S
Zr90        O720   2.432       .  S
Zr90        O108   2.341       .  S
Zr90        O732   2.336       .  S
Zr91       O1327   2.451       .  S
Zr91        O393   2.460   1_554  S
Zr91       O1357   2.420       .  S
Zr91        O404   2.406   1_554  S
Zr91         O95   2.344       .  S
Zr91       O1337   2.342       .  S
Zr91        O742   2.328       .  S
Zr92        O696   2.423   1_545  S
Zr92        O701   2.335   1_545  S
Zr92       O1979   2.342   1_445  S
Zr92       O1368   2.341   1_455  S
Zr92       O1378   2.335   1_455  S
Zr93         O95   2.340       .  S
Zr93        O108   2.335       .  S
Zr94        O407   2.414   1_554  S
Zr94         O96   2.345       .  S
Zr94        O106   2.335       .  S
Zr94        O731   2.342   1_545  S
Zr94        O744   2.337       .  S
O95        Zr730   2.342       .  S
O96        Zr726   2.336       .  S
O96       Zr1364   2.341       .  S
C97         C250   1.493       .  S
C98         C152   1.477       .  S
C98         O711   1.295       .  A
C99         C141   1.479       .  S
C99        O1348   1.293       .  A
C100        C225   1.473       .  S
C101        C124   1.488       .  S
C101        O396   1.297       .  A
C102       C1134   1.469   1_554  S
C102        O715   1.295       .  A
C103        C278   1.481       .  S
C103       O1352   1.296   1_455  A
C104        C515   1.477       .  S
C104        O719   1.287   1_546  A
H105       O1378   0.965   1_455  S
O106       Zr727   2.328   1_545  S
O106      Zr1364   2.335       .  S
O106       H1377   0.965       .  S
H107        O744   0.965       .  S
O108       Zr730   2.337       .  S
O108        H743   0.965       .  S
C109        C110   1.403       .  A
C109        C114   1.403       .  A
C109        H116   1.082       .  S
C110        C111   1.414       .  A
C111        C112   1.406       .  A
C111        N118   1.443       .  S
C112        C113   1.406       .  A
C112        H117   1.084       .  S
C113        C114   1.413       .  A
C114        N115   1.442       .  S
N115        O119   1.263       .  A
N115        O120   1.263       .  A
N118        O121   1.262       .  A
N118       O1394   1.263       .  A
O122       N1390   1.263   1_455  A
C123        C124   1.409       .  A
C123        C128   1.393       .  A
C123        H130   1.084       .  S
C124        C125   1.417       .  A
C125        C126   1.411       .  A
C125        N132   1.436       .  S
C126        C127   1.407       .  A
C126        H131   1.084       .  S
C127        C128   1.406       .  A
C128        N129   1.434       .  S
N129        O134   1.262       .  A
N129       O1405   1.262       .  A
N132        O135   1.263       .  A
N132        O136   1.263       .  A
O133       N1401   1.262   1_455  A
C137        C142   1.403       .  A
C137       C1410   1.403       .  A
C137        H144   1.083       .  S
C138        C139   1.417       .  A
C138       C1409   1.403   1_455  A
C139        C140   1.407       .  A
C139        N146   1.439       .  S
C140       C1413   1.403   1_455  A
C140        H145   1.084       .  S
C141        C142   1.417       .  A
C141       C1412   1.403       .  A
C142        N143   1.442       .  S
N143        O147   1.263       .  A
N143        O148   1.262       .  A
N146        O149   1.262       .  A
N146        O150   1.263       .  A
C151        C156   1.413       .  A
C151       C1424   1.405   1_455  A
C151        H158   1.083       .  S
C152        C153   1.412       .  A
C152       C1423   1.405       .  A
C153        C154   1.394       .  A
C153        N160   1.437       .  S
C154       C1427   1.398       .  A
C154        H159   1.084       .  S
C155        C156   1.419       .  A
C155       C1426   1.398   1_455  A
C156        N157   1.444       .  S
N157        O161   1.263       .  A
N157        O162   1.262       .  A
N160        O163   1.263       .  A
N160        O164   1.263       .  A
C165        C166   1.403       .  A
C165        C170   1.405       .  A
C165        H172   1.084       .  S
C166        C167   1.419       .  A
C167       C1440   1.408       .  A
C167       N1446   1.440       .  S
C168       C1439   1.408       .  A
C168       C1441   1.403       .  A
C168        H173   1.084   1_655  S
C169        C170   1.417       .  A
C169       C1440   1.403       .  A
C169       C1311   1.489       .  S
C170        N171   1.439       .  S
N171        O175   1.263       .  A
N171        O176   1.263       .  A
N174       C1439   1.440   1_455  S
N174        O177   1.263       .  A
N174        O178   1.263       .  A
C179        C184   1.403       .  A
C179        C816   1.399       .  A
C179        H504   1.084       .  S
C180        C181   1.418       .  A
C180        C815   1.399   1_545  A
C180       C1056   1.469       .  S
C181        C182   1.406       .  A
C181        N188   1.442       .  S
C182        C183   1.400       .  A
C182        H187   1.084       .  S
C183        C820   1.417   1_545  A
C184        C819   1.417       .  A
C184        N185   1.443       .  S
N185        O189   1.263       .  A
N185        O190   1.262       .  A
H186        C497   1.084       .  S
N188        O192   1.263       .  A
N188        O509   1.261       .  A
O191        N506   1.261       .  A
C193        C194   1.405       .  A
C193        C516   1.392       .  A
C193        H200   1.083   1_545  S
C194        C195   1.421       .  A
C195        C196   1.411       .  A
C195        N202   1.439       .  S
C196        C197   1.401       .  A
C196        H201   1.077       .  S
C197        C516   1.411       .  A
C197        C422   1.477       .  S
C198        C511   1.392       .  A
C198        C515   1.411       .  A
C198        N199   1.438   1_556  S
N199        O203   1.262       .  A
N199        O840   1.263   1_545  A
N202        O205   1.263       .  A
N202        O206   1.263       .  A
O204        N835   1.263       .  A
C207        C208   1.409       .  A
C207        C212   1.409       .  A
C207        H214   1.083       .  S
C208        C209   1.415       .  A
C209        C210   1.396       .  A
C209        N216   1.428       .  S
C210        C211   1.399       .  A
C210        H215   1.085       .  S
C211        C212   1.415       .  A
C212        N213   1.440       .  S
N213        O217   1.263       .  A
N213        O218   1.261       .  A
N216        O219   1.261       .  A
N216        O220   1.262       .  A
C221        C222   1.403       .  A
C221        C226   1.408       .  A
C221        H228   1.084       .  S
C222        C223   1.414       .  A
C223        C224   1.402       .  A
C223        N866   1.443       .  S
C224        C225   1.402       .  A
C224        H865   1.083       .  S
C225        C226   1.418       .  A
C226        N227   1.444       .  S
N227        O231   1.263       .  A
N227        O232   1.262       .  A
H229        C860   1.083   1_545  S
N230        C859   1.443   1_545  S
N230        O233   1.262       .  A
N230        O234   1.263       .  A
C235        C236   1.403       .  A
C235        C240   1.409       .  A
C235        H242   1.084       .  S
C236        C873   1.415       .  A
C237        C238   1.401       .  A
C237        C872   1.415   1_545  A
C237        N244   1.438       .  S
C238        C239   1.401   1_545  A
C238        H243   1.084       .  S
C239        C876   1.418       .  A
C240        C875   1.418       .  A
C240        N241   1.440       .  S
N241        O245   1.263       .  A
N241        O246   1.263       .  A
N244        O247   1.263       .  A
N244        O248   1.262       .  A
C249        C250   1.411       .  A
C249        C254   1.396       .  A
C249        H256   1.083       .  S
C250        C251   1.419       .  A
C251        C252   1.408       .  A
C251        N258   1.434       .  S
C252        C253   1.403       .  A
C252        H257   1.084       .  S
C253        C254   1.410       .  A
C254        N255   1.442       .  S
N255        O259   1.263       .  A
N255        O260   1.263       .  A
N258        O261   1.262       .  A
N258        O262   1.262       .  A
C263        C264   1.409       .  A
C263        C268   1.390       .  A
C263        H270   1.083       .  S
C264        C265   1.418       .  A
C265        C266   1.415       .  A
C265        N272   1.434       .  S
C266        C267   1.412       .  A
C266        H271   1.083       .  S
C267        C268   1.409       .  A
C268        N269   1.435       .  S
N269        O273   1.263       .  A
N269        O274   1.262       .  A
N272        O275   1.261       .  A
N272        O276   1.263       .  A
C277        C278   1.406       .  A
C277        C600   1.413   1_554  A
C277       H1874   1.083   1_554  S
C278        C279   1.414       .  A
C279        C280   1.391       .  A
C279        N286   1.437       .  S
C280        C281   1.398       .  A
C280        H285   1.083       .  S
C281        C600   1.419   1_554  A
C281        C323   1.480       .  S
C282        C595   1.413       .  A
C282        C599   1.419       .  A
C282        N283   1.442       .  S
N283        O287   1.263       .  A
N283        O288   1.262       .  A
H284       C1867   1.083       .  S
N286        O289   1.263       .  A
N286        O290   1.261       .  A
C291        C292   1.411       .  A
C291        C296   1.397       .  A
C291        H298   1.082       .  S
C292        C611   1.420       .  A
C293        C294   1.406       .  A
C293        C610   1.420       .  A
C293        N300   1.434       .  S
C294        C613   1.401       .  A
C294        H299   1.084       .  S
C295        C296   1.410       .  A
C295        C612   1.401       .  A
C295        C319   1.470       .  S
C296        N297   1.443       .  S
N297        O301   1.263       .  A
N297        O302   1.262       .  A
N300        O303   1.263       .  A
N300        O304   1.262       .  A
C305        C306   1.400       .  A
C305        C310   1.398       .  A
C305        H312   1.084       .  S
C306        C307   1.418       .  A
C307        C308   1.409       .  A
C307        N314   1.435       .  S
C308        C309   1.410       .  A
C308        H313   1.083       .  S
C309        C310   1.419       .  A
C310        N311   1.425       .  S
N311        O315   1.262       .  A
N311        O316   1.263       .  A
N314        O317   1.263       .  A
N314        O318   1.262       .  A
C319        C324   1.398       .  A
C320        C321   1.406       .  A
C320        H325   1.084       .  S
C321        C322   1.408       .  A
C321        C624   1.497       .  S
C322        H326   1.083       .  S
C323        C324   1.400       .  A
C324        H327   1.084       .  S
C328        C329   1.403       .  A
C328        C333   1.399       .  A
C328        C571   1.476       .  S
C329        C330   1.411       .  A
C329        H334   1.083       .  S
C330        C331   1.414       .  A
C330        C627   1.507       .  S
C331        C332   1.413       .  A
C331        H335   1.079       .  S
C332        C333   1.397       .  A
C332        C585   1.493       .  S
C333        H336   1.084       .  S
C337        C338   1.410       .  A
C337        C342   1.409       .  A
C337        C526   1.497       .  S
C338        C339   1.405       .  A
C338        H343   1.082       .  S
C339        C340   1.402       .  A
C339        C554   1.484       .  S
C340        C341   1.403       .  A
C340        H344   1.084       .  S
C341        C342   1.401       .  A
C341        C540   1.477       .  S
C342        H345   1.083       .  S
C346        C347   1.409       .  A
C346        C351   1.406       .  A
C346        C512   1.492       .  S
C347        C348   1.408       .  A
C347        H352   1.083       .  S
C348        C349   1.405       .  A
C348        C557   1.482   1_545  S
C349        C350   1.399       .  A
C349        H353   1.084   1_545  S
C350        C351   1.394       .  A
C350        C501   1.474       .  S
C351        H354   1.084       .  S
C355        C356   1.410       .  A
C355        C360   1.405       .  A
C355        C456   1.488       .  S
C356        C357   1.406   1_455  A
C356        H361   1.084   1_455  S
C357        C358   1.404       .  A
C357       C1759   1.489       .  S
C358        C359   1.403   1_655  A
C358        H362   1.084       .  S
C359        C360   1.398       .  A
C359        C473   1.476       .  S
C360        H363   1.084       .  S
C364        C365   1.405       .  A
C364        C369   1.400       .  A
C364        C445   1.478       .  S
C365        C366   1.407       .  A
C365        H370   1.083       .  S
C366        C367   1.407       .  A
C366        C484   1.489       .  S
C367        C368   1.406       .  A
C367        H371   1.084       .  S
C368        C369   1.399       .  A
C368        C431   1.481       .  S
C369        H372   1.084       .  S
O373        C384   1.293       .  A
O373      Zr1681   2.451   1_455  S
O374        C385   1.295       .  A
O374       Zr408   2.456       .  S
O375        C386   1.293       .  A
O375      Zr1653   2.452   1_455  S
O376        C387   1.297       .  A
O376       Zr381   2.479       .  S
O377        C387   1.285       .  A
O377       Zr411   2.389       .  S
O378        C386   1.290       .  A
O378      Zr1046   2.423       .  S
O379        C385   1.288       .  A
O379       Zr381   2.419       .  S
O380        C384   1.290       .  A
O380      Zr1653   2.418   1_455  S
Zr381      O1647   2.452       .  S
Zr381      O1652   2.418       .  S
Zr381       O382   2.334       .  S
Zr381      O1655   2.348       .  S
Zr381       O391   2.337       .  S
Zr381       O389   2.351       .  S
O382       Zr408   2.339       .  S
O382       Zr411   2.332       .  S
O383      Zr1653   2.348   1_455  S
O383      Zr1681   2.342   1_455  S
O383      Zr1046   2.335       .  S
C384        C610   1.495       .  S
C385        C428   1.469       .  S
C386        C529   1.473       .  S
C387        C582   1.497       .  S
H388        O389   0.966       .  S
O389       Zr408   2.345       .  S
O389      Zr2318   2.342       .  S
H390        O391   0.965       .  S
O391       Zr409   2.344       .  S
O391       Zr411   2.334       .  S
O392        C415   1.294       .  A
O392      Zr1044   2.462       .  S
O393       C1052   1.295       .  A
O394       C1689   1.293   1_455  A
O394       Zr410   2.447       .  S
O395        C418   1.296       .  A
O395       Zr411   2.464       .  S
O396       Zr411   2.469       .  S
O397       C1056   1.295       .  A
O397       Zr410   2.457       .  S
O398       C1693   1.296       .  A
O398       Zr412   2.464       .  S
O399        C422   1.297       .  A
O399       Zr412   2.471       .  S
O400        C421   1.288       .  A
O400       Zr410   2.410       .  S
O401       C1058   1.287       .  A
O401       Zr411   2.405       .  S
O402        C417   1.291       .  A
O402      Zr1044   2.432       .  S
O403        C420   1.288       .  A
O403      Zr1681   2.420   1_455  S
O404        C419   1.288       .  A
O405        C418   1.288       .  A
O405       Zr408   2.417       .  S
O406        C415   1.289       .  A
O406       Zr412   2.410       .  S
O407        C416   1.289       .  A
Zr408      O1028   2.461       .  S
Zr408      O1038   2.432       .  S
Zr408      O1050   2.336       .  S
Zr408       O426   2.341       .  S
Zr409      O1645   2.451       .  S
Zr409      O1675   2.420       .  S
Zr409      O1655   2.342       .  S
Zr409       O413   2.344       .  S
Zr409      O1060   2.328       .  S
Zr410      O1014   2.423   1_545  S
Zr410      O1019   2.335   1_545  S
Zr410      O2297   2.342   1_445  S
Zr410      O1686   2.341   1_455  S
Zr410      O1696   2.335   1_455  S
Zr411       O413   2.340       .  S
Zr411       O426   2.335       .  S
Zr412      O1049   2.342   1_545  S
Zr412       O414   2.345       .  S
Zr412      O1062   2.337       .  S
Zr412       O424   2.335       .  S
O413      Zr1048   2.342       .  S
O414      Zr1044   2.336       .  S
O414      Zr1682   2.341       .  S
C415        C568   1.493       .  S
C416        C470   1.477       .  S
C416       O1029   1.295       .  A
C417        C459   1.479       .  S
C417       O1666   1.293       .  A
C418        C543   1.473       .  S
C419        C442   1.488       .  S
C420        C816   1.469       .  S
C420       O1033   1.295       .  A
C421        C596   1.481       .  S
C421       O1670   1.296   1_455  A
C422       O1037   1.287   1_545  A
H423       O1696   0.965   1_455  S
O424      Zr1045   2.328   1_545  S
O424      Zr1682   2.335       .  S
O424       H1695   0.965       .  S
H425       O1062   0.965       .  S
O426      Zr1048   2.337       .  S
O426       H1061   0.965       .  S
C427        C428   1.403       .  A
C427        C432   1.403       .  A
C427        H434   1.082       .  S
C428        C429   1.414       .  A
C429        C430   1.406       .  A
C429        N436   1.443       .  S
C430        C431   1.406       .  A
C430        H435   1.084       .  S
C431        C432   1.413       .  A
C432        N433   1.442       .  S
N433        O437   1.263       .  A
N433        O438   1.263       .  A
N436        O439   1.262       .  A
N436       O1712   1.263       .  A
O440       N1708   1.263   1_455  A
C441        C442   1.409       .  A
C441        C446   1.393       .  A
C441        H448   1.084       .  S
C442        C443   1.417       .  A
C443        C444   1.411       .  A
C443        N450   1.436       .  S
C444        C445   1.407       .  A
C444        H449   1.084       .  S
C445        C446   1.406       .  A
C446        N447   1.434       .  S
N447       O1723   1.262       .  A
N447        O452   1.262       .  A
N450        O453   1.263       .  A
N450        O454   1.263       .  A
O451       N1719   1.262   1_455  A
C455       C1728   1.403       .  A
C455        C460   1.403       .  A
C455        H462   1.083       .  S
C456       C1727   1.403   1_455  A
C456        C457   1.417       .  A
C457        C458   1.407       .  A
C457        N464   1.439       .  S
C458       C1731   1.403   1_455  A
C458        H463   1.084       .  S
C459       C1730   1.403       .  A
C459        C460   1.417       .  A
C460        N461   1.442       .  S
N461        O465   1.263       .  A
N461        O466   1.262       .  A
N464        O467   1.262       .  A
N464        O468   1.263       .  A
C469       C1742   1.405   1_455  A
C469        C474   1.413       .  A
C469        H476   1.083       .  S
C470       C1741   1.405       .  A
C470        C471   1.412       .  A
C471        C472   1.394       .  A
C471        N478   1.437       .  S
C472       C1745   1.398       .  A
C472        H477   1.084       .  S
C473       C1744   1.398   1_455  A
C473        C474   1.419       .  A
C474        N475   1.444       .  S
N475        O479   1.263       .  A
N475        O480   1.262       .  A
N478        O481   1.263       .  A
N478        O482   1.263       .  A
C483        C484   1.403       .  A
C483        C488   1.405       .  A
C483        H490   1.084       .  S
C484        C485   1.419       .  A
C485       C1758   1.408       .  A
C485       N1764   1.440       .  S
C486       C1757   1.408       .  A
C486       C1759   1.403       .  A
C486        H491   1.084   1_655  S
C487       C1758   1.403       .  A
C487        C488   1.417       .  A
C487       C1629   1.489       .  S
C488        N489   1.439       .  S
N489        O493   1.263       .  A
N489        O494   1.263       .  A
N492       C1757   1.440   1_455  S
N492        O495   1.263       .  A
N492        O496   1.263       .  A
C497       C1134   1.399   1_554  A
C497        C502   1.403   1_554  A
C498       C1133   1.399   1_546  A
C498        C499   1.418       .  A
C498        C738   1.469   1_556  S
C499        C500   1.406       .  A
C499        N506   1.442       .  S
C500        C501   1.400       .  A
C500        H505   1.084       .  S
C501       C1138   1.417   1_545  A
C502       C1137   1.417       .  A
C502        N503   1.443       .  S
N503        O507   1.263   1_556  A
N503        O508   1.262       .  A
N506        O510   1.263       .  A
C511        C512   1.405       .  A
C511        H518   1.083   1_545  S
C512        C513   1.421       .  A
C513        C514   1.411       .  A
C513        N520   1.439       .  S
C514        C515   1.401       .  A
C514        H519   1.077       .  S
C516        N517   1.438       .  S
N517        O521   1.262       .  A
N517       O1158   1.263   1_545  A
N520        O523   1.263       .  A
N520        O524   1.263       .  A
O522       N1153   1.263       .  A
C525        C526   1.409       .  A
C525        C530   1.409       .  A
C525        H532   1.083       .  S
C526        C527   1.415       .  A
C527        C528   1.396       .  A
C527        N534   1.428       .  S
C528        C529   1.399       .  A
C528        H533   1.085       .  S
C529        C530   1.415       .  A
C530        N531   1.440       .  S
N531        O535   1.263       .  A
N531        O536   1.261       .  A
N534        O537   1.261       .  A
N534        O538   1.262       .  A
C539        C540   1.403       .  A
C539        C544   1.408       .  A
C539        H546   1.084       .  S
C540        C541   1.414       .  A
C541        C542   1.402       .  A
C541       N1184   1.443       .  S
C542        C543   1.402       .  A
C542       H1183   1.083       .  S
C543        C544   1.418       .  A
C544        N545   1.444       .  S
N545        O549   1.263       .  A
N545        O550   1.262       .  A
H547       C1178   1.083   1_545  S
N548       C1177   1.443   1_545  S
N548        O551   1.262       .  A
N548        O552   1.263       .  A
C553        C554   1.403       .  A
C553        C558   1.409       .  A
C553        H560   1.084       .  S
C554       C1191   1.415       .  A
C555       C1190   1.415   1_545  A
C555        C556   1.401       .  A
C555        N562   1.438       .  S
C556        C557   1.401   1_545  A
C556        H561   1.084       .  S
C557       C1194   1.418       .  A
C558       C1193   1.418       .  A
C558        N559   1.440       .  S
N559        O563   1.263       .  A
N559        O564   1.263       .  A
N562        O565   1.263       .  A
N562        O566   1.262       .  A
C567        C568   1.411       .  A
C567        C572   1.396       .  A
C567        H574   1.083       .  S
C568        C569   1.419       .  A
C569        C570   1.408       .  A
C569        N576   1.434       .  S
C570        C571   1.403       .  A
C570        H575   1.084       .  S
C571        C572   1.410       .  A
C572        N573   1.442       .  S
N573        O577   1.263       .  A
N573        O578   1.263       .  A
N576        O579   1.262       .  A
N576        O580   1.262       .  A
C581        C582   1.409       .  A
C581        C586   1.390       .  A
C581        H588   1.083       .  S
C582        C583   1.418       .  A
C583        C584   1.415       .  A
C583        N590   1.434       .  S
C584        C585   1.412       .  A
C584        H589   1.083       .  S
C585        C586   1.409       .  A
C586        N587   1.435       .  S
N587        O591   1.263       .  A
N587        O592   1.262       .  A
N590        O593   1.261       .  A
N590        O594   1.263       .  A
C595        C596   1.406       .  A
C595       H1556   1.083       .  S
C596        C597   1.414       .  A
C597        C598   1.391       .  A
C597        N604   1.437       .  S
C598        C599   1.398       .  A
C598        H603   1.083       .  S
C600        N601   1.442       .  S
N601        O605   1.263       .  A
N601        O606   1.262       .  A
H602       C1549   1.083   1_556  S
N604        O607   1.263       .  A
N604        O608   1.261       .  A
C609        C610   1.411       .  A
C609        C614   1.397       .  A
C609        H616   1.082       .  S
C611        C612   1.406       .  A
C611        N618   1.434   1_554  S
C612        H617   1.084   1_554  S
C613        C614   1.410       .  A
C614        N615   1.443       .  S
N615        O619   1.263       .  A
N615        O620   1.262       .  A
N618        O621   1.263       .  A
N618        O622   1.262       .  A
C623        C624   1.400       .  A
C623        C628   1.398       .  A
C623        H630   1.084       .  S
C624        C625   1.418       .  A
C625        C626   1.409       .  A
C625        N632   1.435       .  S
C626        C627   1.410       .  A
C626        H631   1.083       .  S
C627        C628   1.419       .  A
C628        N629   1.425       .  S
N629        O633   1.262       .  A
N629        O634   1.263       .  A
N632        O635   1.263       .  A
N632        O636   1.262       .  A
C637        C956   1.399       .  A
C637        C642   1.398       .  A
C637       C1249   1.470       .  S
C638        C955   1.399       .  A
C638        C639   1.406       .  A
C638        H643   1.084       .  S
C639        C640   1.408       .  A
C639        C942   1.497       .  S
C640        C959   1.410       .  A
C640        H644   1.083       .  S
C641        C958   1.410       .  A
C641        C642   1.400       .  A
C641       C1235   1.480       .  S
C642        H645   1.084       .  S
C646        C647   1.403       .  A
C646        C651   1.399       .  A
C646        C889   1.476       .  S
C647        C648   1.411       .  A
C647        H652   1.083       .  S
C648        C649   1.414       .  A
C648        C945   1.507       .  S
C649        C650   1.413       .  A
C649        H653   1.079       .  S
C650        C651   1.397       .  A
C650        C903   1.493       .  S
C651        H654   1.084       .  S
C655        C656   1.410       .  A
C655        C660   1.409       .  A
C655        C844   1.497       .  S
C656        C657   1.405       .  A
C656        H661   1.082       .  S
C657        C658   1.402       .  A
C657        C872   1.484       .  S
C658        C659   1.403       .  A
C658        H662   1.084       .  S
C659        C660   1.401       .  A
C659        C858   1.477       .  S
C660        H663   1.083       .  S
C664        C665   1.409       .  A
C664        C669   1.406       .  A
C664        C830   1.492       .  S
C665        C666   1.408       .  A
C665        H670   1.083       .  S
C666        C667   1.405       .  A
C666        C875   1.482       .  S
C667        C668   1.399       .  A
C667        H671   1.084       .  S
C668        C669   1.394       .  A
C668        C819   1.474       .  S
C669        H672   1.084       .  S
C673        C674   1.410       .  A
C673        C678   1.405       .  A
C673        C774   1.488       .  S
C674        C675   1.406   1_455  A
C674        H679   1.084   1_455  S
C675        C676   1.404       .  A
C675       C2077   1.489       .  S
C676        C677   1.403   1_655  A
C676        H680   1.084       .  S
C677        C678   1.398       .  A
C677        C791   1.476       .  S
C678        H681   1.084       .  S
C682        C683   1.405       .  A
C682        C687   1.400       .  A
C682        C763   1.478       .  S
C683        C684   1.407       .  A
C683        H688   1.083       .  S
C684        C685   1.407       .  A
C684        C802   1.489       .  S
C685        C686   1.406       .  A
C685        H689   1.084       .  S
C686        C687   1.399       .  A
C686        C749   1.481       .  S
C687        H690   1.084       .  S
O691        C702   1.293       .  A
O691      Zr1999   2.451   1_455  S
O692        C703   1.295       .  A
O692       Zr726   2.456   1_565  S
O693        C704   1.293       .  A
O693      Zr1971   2.452   1_455  S
O694        C705   1.297       .  A
O694       Zr699   2.479       .  S
O695        C705   1.285       .  A
O695       Zr729   2.389       .  S
O696        C704   1.290       .  A
O697        C703   1.288       .  A
O697       Zr699   2.419       .  S
O698        C702   1.290       .  A
O698      Zr1971   2.418   1_455  S
Zr699      O1965   2.452       .  S
Zr699      O1970   2.418       .  S
Zr699       O700   2.334       .  S
Zr699      O1973   2.348       .  S
Zr699       O709   2.337       .  S
Zr699       O707   2.351       .  S
O700       Zr726   2.339   1_565  S
O700       Zr729   2.332       .  S
O701      Zr1971   2.348   1_455  S
O701      Zr1999   2.342   1_455  S
C702        C928   1.495       .  S
C703        C746   1.469       .  S
C704        C847   1.473       .  S
C705        C900   1.497       .  S
H706        O707   0.966       .  S
O707       Zr726   2.345   1_565  S
O707      Zr1364   2.342   1_565  S
H708        O709   0.965       .  S
O709       Zr727   2.344       .  S
O709       Zr729   2.334       .  S
O710        C733   1.294       .  A
O711      Zr1045   2.460   1_545  S
O712       C2007   1.293   1_455  A
O712       Zr728   2.447       .  S
O713        C736   1.296       .  A
O713       Zr729   2.464       .  S
O714       C1055   1.297       .  A
O714       Zr729   2.469   1_556  S
O715       Zr728   2.457       .  S
O716       C2011   1.296       .  A
O716       Zr730   2.464       .  S
O717        C740   1.297       .  A
O717       Zr730   2.471   1_556  S
O718        C739   1.288       .  A
O718       Zr728   2.410       .  S
O719       Zr729   2.405       .  S
O720        C735   1.291       .  A
O721        C738   1.288   1_565  A
O721      Zr1999   2.420   1_455  S
O722        C737   1.288       .  A
O722      Zr1045   2.406       .  S
O723        C736   1.288       .  A
O723       Zr726   2.417   1_565  S
O724        C733   1.289       .  A
O724       Zr730   2.410       .  S
O725        C734   1.289       .  A
O725      Zr1048   2.414       .  S
Zr726       O744   2.341       .  S
Zr727      O1963   2.451       .  S
Zr727      O1029   2.460   1_564  S
Zr727      O1993   2.420       .  S
Zr727      O1040   2.406   1_554  S
Zr727      O1973   2.342       .  S
Zr727       O731   2.344       .  S
Zr728      O1343   2.342   1_455  S
Zr728      O2004   2.341   1_455  S
Zr728      O2014   2.335   1_455  S
Zr729       O731   2.340       .  S
Zr729       O744   2.335   1_565  S
Zr730      O1043   2.414   1_554  S
Zr730       O732   2.345       .  S
Zr730       O742   2.335       .  S
O732      Zr2000   2.341       .  S
C733        C886   1.493       .  S
C734        C788   1.477       .  S
C735        C777   1.479       .  S
C735       O1984   1.293       .  A
C736        C861   1.473       .  S
C737        C760   1.488       .  S
C737       O1032   1.297       .  A
C739        C914   1.481       .  S
C739       O1988   1.296   1_455  A
C740       C1151   1.477       .  S
H741       O2014   0.965   1_455  S
O742      Zr2000   2.335       .  S
O742       H2013   0.965       .  S
C745        C746   1.403       .  A
C745        C750   1.403       .  A
C745        H752   1.082       .  S
C746        C747   1.414       .  A
C747        C748   1.406       .  A
C747        N754   1.443       .  S
C748        C749   1.406       .  A
C748        H753   1.084       .  S
C749        C750   1.413       .  A
C750        N751   1.442       .  S
N751        O755   1.263       .  A
N751        O756   1.263       .  A
N754        O757   1.262       .  A
N754       O2030   1.263       .  A
O758       N2026   1.263   1_455  A
C759        C760   1.409       .  A
C759        C764   1.393       .  A
C759        H766   1.084       .  S
C760        C761   1.417       .  A
C761        C762   1.411       .  A
C761        N768   1.436       .  S
C762        C763   1.407       .  A
C762        H767   1.084       .  S
C763        C764   1.406       .  A
C764        N765   1.434       .  S
N765       O2041   1.262       .  A
N765        O770   1.262       .  A
N768        O771   1.263       .  A
N768        O772   1.263       .  A
O769       N2037   1.262   1_455  A
C773       C2046   1.403       .  A
C773        C778   1.403       .  A
C773        H780   1.083       .  S
C774       C2045   1.403   1_455  A
C774        C775   1.417       .  A
C775        C776   1.407       .  A
C775        N782   1.439       .  S
C776       C2049   1.403   1_455  A
C776        H781   1.084       .  S
C777       C2048   1.403       .  A
C777        C778   1.417       .  A
C778        N779   1.442       .  S
N779        O783   1.263       .  A
N779        O784   1.262       .  A
N782        O785   1.262       .  A
N782        O786   1.263       .  A
C787       C2060   1.405   1_455  A
C787        C792   1.413       .  A
C787        H794   1.083       .  S
C788       C2059   1.405       .  A
C788        C789   1.412       .  A
C789        C790   1.394       .  A
C789        N796   1.437       .  S
C790       C2063   1.398       .  A
C790        H795   1.084       .  S
C791       C2062   1.398   1_455  A
C791        C792   1.419       .  A
C792        N793   1.444       .  S
N793        O797   1.263       .  A
N793        O798   1.262       .  A
N796        O799   1.263       .  A
N796        O800   1.263       .  A
C801        C802   1.403       .  A
C801        C806   1.405       .  A
C801        H808   1.084       .  S
C802        C803   1.419       .  A
C803       C2076   1.408       .  A
C803       N2082   1.440       .  S
C804       C2075   1.408       .  A
C804       C2077   1.403       .  A
C804        H809   1.084   1_655  S
C805       C2076   1.403       .  A
C805        C806   1.417       .  A
C805       C1947   1.489       .  S
C806        N807   1.439       .  S
N807        O811   1.263       .  A
N807        O812   1.263       .  A
N810       C2075   1.440   1_455  S
N810        O813   1.263       .  A
N810        O814   1.263       .  A
C815        C820   1.403       .  A
C815       H1140   1.084       .  S
C816        C817   1.418       .  A
C817        C818   1.406       .  A
C817        N824   1.442       .  S
C818        C819   1.400       .  A
C818        H823   1.084       .  S
C820        N821   1.443       .  S
N821        O825   1.263       .  A
N821        O826   1.262       .  A
H822       C1133   1.084       .  S
N824       O1145   1.261       .  A
N824        O828   1.263       .  A
O827       N1142   1.261       .  A
C829        C830   1.405       .  A
C829       C1152   1.392       .  A
C829        H836   1.083       .  S
C830        C831   1.421       .  A
C831        C832   1.411       .  A
C831        N838   1.439       .  S
C832        C833   1.401       .  A
C832        H837   1.077       .  S
C833       C1152   1.411       .  A
C833       C1058   1.477       .  S
C834       C1147   1.392       .  A
C834       C1151   1.411       .  A
C834        N835   1.438   1_556  S
N835        O839   1.262       .  A
N838        O841   1.263       .  A
N838        O842   1.263       .  A
C843        C844   1.409       .  A
C843        C848   1.409       .  A
C843        H850   1.083       .  S
C844        C845   1.415       .  A
C845        C846   1.396       .  A
C845        N852   1.428       .  S
C846        C847   1.399       .  A
C846        H851   1.085       .  S
C847        C848   1.415       .  A
C848        N849   1.440       .  S
N849        O853   1.263       .  A
N849        O854   1.261       .  A
N852        O855   1.261   1_565  A
N852        O856   1.262       .  A
C857        C858   1.403       .  A
C857        C862   1.408       .  A
C857        H864   1.084       .  S
C858        C859   1.414       .  A
C859        C860   1.402       .  A
C860        C861   1.402       .  A
C861        C862   1.418       .  A
C862        N863   1.444       .  S
N863        O867   1.263       .  A
N863        O868   1.262       .  A
N866        O869   1.262       .  A
N866        O870   1.263       .  A
C871        C872   1.403       .  A
C871        C876   1.409       .  A
C871        H878   1.084       .  S
C873        C874   1.401       .  A
C873        N880   1.438       .  S
C874        C875   1.401       .  A
C874        H879   1.084       .  S
C876        N877   1.440       .  S
N877        O881   1.263       .  A
N877        O882   1.263       .  A
N880        O883   1.263       .  A
N880        O884   1.262       .  A
C885        C886   1.411       .  A
C885        C890   1.396       .  A
C885        H892   1.083       .  S
C886        C887   1.419       .  A
C887        C888   1.408       .  A
C887        N894   1.434       .  S
C888        C889   1.403       .  A
C888        H893   1.084       .  S
C889        C890   1.410       .  A
C890        N891   1.442       .  S
N891        O895   1.263       .  A
N891        O896   1.263       .  A
N894        O897   1.262       .  A
N894        O898   1.262       .  A
C899        C900   1.409       .  A
C899        C904   1.390       .  A
C899        H906   1.083       .  S
C900        C901   1.418       .  A
C901        C902   1.415       .  A
C901        N908   1.434       .  S
C902        C903   1.412       .  A
C902        H907   1.083       .  S
C903        C904   1.409       .  A
C904        N905   1.435       .  S
N905        O909   1.263       .  A
N905        O910   1.262       .  A
N908        O911   1.261       .  A
N908        O912   1.263       .  A
C913        C914   1.406       .  A
C913       C1236   1.413   1_554  A
C913       H2510   1.083   1_554  S
C914        C915   1.414       .  A
C915        C916   1.391       .  A
C915        N922   1.437       .  S
C916        C917   1.398       .  A
C916        H921   1.083       .  S
C917       C1236   1.419   1_554  A
C917        C959   1.480       .  S
C918       C1231   1.413       .  A
C918       C1235   1.419       .  A
C918        N919   1.442       .  S
N919        O923   1.263       .  A
N919        O924   1.262       .  A
H920       C2503   1.083       .  S
N922        O925   1.263       .  A
N922        O926   1.261       .  A
C927        C928   1.411       .  A
C927        C932   1.397       .  A
C927        H934   1.082       .  S
C928       C1247   1.420       .  A
C929       C1246   1.420       .  A
C929        C930   1.406       .  A
C929        N936   1.434       .  S
C930       C1249   1.401       .  A
C930        H935   1.084       .  S
C931       C1248   1.401       .  A
C931        C932   1.410       .  A
C931        C955   1.470       .  S
C932        N933   1.443       .  S
N933        O937   1.263       .  A
N933        O938   1.262       .  A
N936        O939   1.263       .  A
N936        O940   1.262       .  A
C941        C942   1.400       .  A
C941        C946   1.398       .  A
C941        H948   1.084       .  S
C942        C943   1.418       .  A
C943        C944   1.409       .  A
C943        N950   1.435       .  S
C944        C945   1.410       .  A
C944        H949   1.083       .  S
C945        C946   1.419       .  A
C946        N947   1.425       .  S
N947        O951   1.262       .  A
N947        O952   1.263       .  A
N950        O953   1.263       .  A
N950        O954   1.262       .  A
C955        C960   1.398       .  A
C956        C957   1.406       .  A
C956        H961   1.084       .  S
C957        C958   1.408       .  A
C957       C1260   1.497       .  S
C958        H962   1.083       .  S
C959        C960   1.400       .  A
C960        H963   1.084       .  S
C964        C965   1.403       .  A
C964        C969   1.399       .  A
C964       C1207   1.476       .  S
C965        C966   1.411       .  A
C965        H970   1.083       .  S
C966        C967   1.414       .  A
C966       C1263   1.507       .  S
C967        C968   1.413       .  A
C967        H971   1.079       .  S
C968        C969   1.397       .  A
C968       C1221   1.493       .  S
C969        H972   1.084       .  S
C973        C974   1.410       .  A
C973        C978   1.409       .  A
C973       C1162   1.497       .  S
C974        C975   1.405       .  A
C974        H979   1.082       .  S
C975        C976   1.402       .  A
C975       C1190   1.484       .  S
C976        C977   1.403       .  A
C976        H980   1.084       .  S
C977        C978   1.401       .  A
C977       C1176   1.477       .  S
C978        H981   1.083       .  S
C982        C983   1.409       .  A
C982        C987   1.406       .  A
C982       C1148   1.492       .  S
C983        C984   1.408       .  A
C983        H988   1.083       .  S
C984        C985   1.405       .  A
C984       C1193   1.482       .  S
C985        C986   1.399       .  A
C985        H989   1.084       .  S
C986        C987   1.394       .  A
C986       C1137   1.474       .  S
C987        H990   1.084       .  S
C991        C992   1.410       .  A
C991        C996   1.405       .  A
C991       C1092   1.488       .  S
C992        C993   1.406   1_455  A
C992        H997   1.084   1_455  S
C993        C994   1.404       .  A
C993       C2395   1.489       .  S
C994        C995   1.403   1_655  A
C994        H998   1.084       .  S
C995        C996   1.398       .  A
C995       C1109   1.476       .  S
C996        H999   1.084       .  S
C1000      C1001   1.405       .  A
C1000      C1005   1.400       .  A
C1000      C1081   1.478       .  S
C1001      C1002   1.407       .  A
C1001      H1006   1.083       .  S
C1002      C1003   1.407       .  A
C1002      C1120   1.489       .  S
C1003      C1004   1.406       .  A
C1003      H1007   1.084       .  S
C1004      C1005   1.399       .  A
C1004      C1067   1.481       .  S
C1005      H1008   1.084       .  S
O1009      C1020   1.293       .  A
O1009     Zr2317   2.451   1_455  S
O1010      C1021   1.295       .  A
O1010     Zr1044   2.456   1_565  S
O1011      C1022   1.293       .  A
O1011     Zr2289   2.452   1_455  S
O1012      C1023   1.297       .  A
O1012     Zr1017   2.479       .  S
O1013      C1023   1.285       .  A
O1013     Zr1047   2.389       .  S
O1014      C1022   1.290       .  A
O1015      C1021   1.288       .  A
O1015     Zr1017   2.419       .  S
O1016      C1020   1.290       .  A
O1016     Zr2289   2.418   1_455  S
Zr1017     O2283   2.452       .  S
Zr1017     O2288   2.418       .  S
Zr1017     O1018   2.334       .  S
Zr1017     O2291   2.348       .  S
Zr1017     O1027   2.337       .  S
Zr1017     O1025   2.351       .  S
O1018     Zr1044   2.339   1_565  S
O1018     Zr1047   2.332       .  S
O1019     Zr2289   2.348   1_455  S
O1019     Zr2317   2.342   1_455  S
C1020      C1246   1.495       .  S
C1021      C1064   1.469       .  S
C1022      C1165   1.473       .  S
C1023      C1218   1.497       .  S
H1024      O1025   0.966       .  S
O1025     Zr1044   2.345   1_565  S
O1025     Zr1682   2.342   1_565  S
H1026      O1027   0.965       .  S
O1027     Zr1045   2.344       .  S
O1027     Zr1047   2.334       .  S
O1028      C1051   1.294       .  A
O1030      C2325   1.293   1_455  A
O1030     Zr1046   2.447       .  S
O1031      C1054   1.296       .  A
O1031     Zr1047   2.464       .  S
O1032     Zr1047   2.469       .  S
O1033     Zr1046   2.457       .  S
O1034      C2329   1.296       .  A
O1034     Zr1048   2.464       .  S
O1035      C1058   1.297       .  A
O1035     Zr1048   2.471       .  S
O1036      C1057   1.288       .  A
O1036     Zr1046   2.410       .  S
O1037     Zr1047   2.405       .  S
O1038      C1053   1.291       .  A
O1039      C1056   1.288   1_565  A
O1039     Zr2317   2.420   1_455  S
O1040      C1055   1.288       .  A
O1041      C1054   1.288       .  A
O1041     Zr1044   2.417   1_565  S
O1042      C1051   1.289       .  A
O1042     Zr1048   2.410       .  S
O1043      C1052   1.289       .  A
Zr1044     O1062   2.341       .  S
Zr1045     O2281   2.451       .  S
Zr1045     O2311   2.420       .  S
Zr1045     O2291   2.342       .  S
Zr1045     O1049   2.344       .  S
Zr1046     O1661   2.342   1_455  S
Zr1046     O2322   2.341   1_455  S
Zr1046     O2332   2.335   1_455  S
Zr1047     O1049   2.340       .  S
Zr1047     O1062   2.335   1_565  S
Zr1048     O1050   2.345       .  S
Zr1048     O1060   2.335       .  S
O1050     Zr2318   2.341       .  S
C1051      C1204   1.493       .  S
C1052      C1106   1.477       .  S
C1053      C1095   1.479       .  S
C1053      O2302   1.293       .  A
C1054      C1179   1.473       .  S
C1055      C1078   1.488       .  S
C1057      C1232   1.481       .  S
C1057      O2306   1.296   1_455  A
H1059      O2332   0.965   1_455  S
O1060     Zr2318   2.335       .  S
O1060      H2331   0.965       .  S
C1063      C1064   1.403       .  A
C1063      C1068   1.403       .  A
C1063      H1070   1.082       .  S
C1064      C1065   1.414       .  A
C1065      C1066   1.406       .  A
C1065      N1072   1.443       .  S
C1066      C1067   1.406       .  A
C1066      H1071   1.084       .  S
C1067      C1068   1.413       .  A
C1068      N1069   1.442       .  S
N1069      O1073   1.263       .  A
N1069      O1074   1.263       .  A
N1072      O1075   1.262       .  A
N1072      O2348   1.263       .  A
O1076      N2344   1.263   1_455  A
C1077      C1078   1.409       .  A
C1077      C1082   1.393       .  A
C1077      H1084   1.084       .  S
C1078      C1079   1.417       .  A
C1079      C1080   1.411       .  A
C1079      N1086   1.436       .  S
C1080      C1081   1.407       .  A
C1080      H1085   1.084       .  S
C1081      C1082   1.406       .  A
C1082      N1083   1.434       .  S
N1083      O2359   1.262       .  A
N1083      O1088   1.262       .  A
N1086      O1089   1.263       .  A
N1086      O1090   1.263       .  A
O1087      N2355   1.262   1_455  A
C1091      C2364   1.403       .  A
C1091      C1096   1.403       .  A
C1091      H1098   1.083       .  S
C1092      C2363   1.403   1_455  A
C1092      C1093   1.417       .  A
C1093      C1094   1.407       .  A
C1093      N1100   1.439       .  S
C1094      C2367   1.403   1_455  A
C1094      H1099   1.084       .  S
C1095      C2366   1.403       .  A
C1095      C1096   1.417       .  A
C1096      N1097   1.442       .  S
N1097      O1101   1.263       .  A
N1097      O1102   1.262       .  A
N1100      O1103   1.262       .  A
N1100      O1104   1.263       .  A
C1105      C2378   1.405   1_455  A
C1105      C1110   1.413       .  A
C1105      H1112   1.083       .  S
C1106      C2377   1.405       .  A
C1106      C1107   1.412       .  A
C1107      C1108   1.394       .  A
C1107      N1114   1.437       .  S
C1108      C2381   1.398       .  A
C1108      H1113   1.084       .  S
C1109      C2380   1.398   1_455  A
C1109      C1110   1.419       .  A
C1110      N1111   1.444       .  S
N1111      O1115   1.263       .  A
N1111      O1116   1.262       .  A
N1114      O1117   1.263       .  A
N1114      O1118   1.263       .  A
C1119      C1120   1.403       .  A
C1119      C1124   1.405       .  A
C1119      H1126   1.084       .  S
C1120      C1121   1.419       .  A
C1121      C2394   1.408       .  A
C1121      N2400   1.440       .  S
C1122      C2393   1.408       .  A
C1122      C2395   1.403       .  A
C1122      H1127   1.084   1_655  S
C1123      C2394   1.403       .  A
C1123      C1124   1.417       .  A
C1123      C2265   1.489       .  S
C1124      N1125   1.439       .  S
N1125      O1129   1.263       .  A
N1125      O1130   1.263       .  A
N1128      C2393   1.440   1_455  S
N1128      O1131   1.263       .  A
N1128      O1132   1.263       .  A
C1133      C1138   1.403   1_554  A
C1134      C1135   1.418       .  A
C1135      C1136   1.406       .  A
C1135      N1142   1.442       .  S
C1136      C1137   1.400       .  A
C1136      H1141   1.084       .  S
C1138      N1139   1.443       .  S
N1139      O1143   1.263   1_556  A
N1139      O1144   1.262       .  A
N1142      O1146   1.263       .  A
C1147      C1148   1.405       .  A
C1147      H1154   1.083       .  S
C1148      C1149   1.421       .  A
C1149      C1150   1.411       .  A
C1149      N1156   1.439       .  S
C1150      C1151   1.401       .  A
C1150      H1155   1.077       .  S
C1152      N1153   1.438       .  S
N1153      O1157   1.262       .  A
N1156      O1159   1.263       .  A
N1156      O1160   1.263       .  A
C1161      C1162   1.409       .  A
C1161      C1166   1.409       .  A
C1161      H1168   1.083       .  S
C1162      C1163   1.415       .  A
C1163      C1164   1.396       .  A
C1163      N1170   1.428       .  S
C1164      C1165   1.399       .  A
C1164      H1169   1.085       .  S
C1165      C1166   1.415       .  A
C1166      N1167   1.440       .  S
N1167      O1171   1.263       .  A
N1167      O1172   1.261       .  A
N1170      O1173   1.261   1_565  A
N1170      O1174   1.262       .  A
C1175      C1176   1.403       .  A
C1175      C1180   1.408       .  A
C1175      H1182   1.084       .  S
C1176      C1177   1.414       .  A
C1177      C1178   1.402       .  A
C1178      C1179   1.402       .  A
C1179      C1180   1.418       .  A
C1180      N1181   1.444       .  S
N1181      O1185   1.263       .  A
N1181      O1186   1.262       .  A
N1184      O1187   1.262       .  A
N1184      O1188   1.263       .  A
C1189      C1190   1.403       .  A
C1189      C1194   1.409       .  A
C1189      H1196   1.084       .  S
C1191      C1192   1.401       .  A
C1191      N1198   1.438       .  S
C1192      C1193   1.401       .  A
C1192      H1197   1.084       .  S
C1194      N1195   1.440       .  S
N1195      O1199   1.263       .  A
N1195      O1200   1.263       .  A
N1198      O1201   1.263       .  A
N1198      O1202   1.262       .  A
C1203      C1204   1.411       .  A
C1203      C1208   1.396       .  A
C1203      H1210   1.083       .  S
C1204      C1205   1.419       .  A
C1205      C1206   1.408       .  A
C1205      N1212   1.434       .  S
C1206      C1207   1.403       .  A
C1206      H1211   1.084       .  S
C1207      C1208   1.410       .  A
C1208      N1209   1.442       .  S
N1209      O1213   1.263       .  A
N1209      O1214   1.263       .  A
N1212      O1215   1.262       .  A
N1212      O1216   1.262       .  A
C1217      C1218   1.409       .  A
C1217      C1222   1.390       .  A
C1217      H1224   1.083       .  S
C1218      C1219   1.418       .  A
C1219      C1220   1.415       .  A
C1219      N1226   1.434       .  S
C1220      C1221   1.412       .  A
C1220      H1225   1.083       .  S
C1221      C1222   1.409       .  A
C1222      N1223   1.435       .  S
N1223      O1227   1.263       .  A
N1223      O1228   1.262       .  A
N1226      O1229   1.261       .  A
N1226      O1230   1.263       .  A
C1231      C1232   1.406       .  A
C1231      H2192   1.083       .  S
C1232      C1233   1.414       .  A
C1233      C1234   1.391       .  A
C1233      N1240   1.437       .  S
C1234      C1235   1.398       .  A
C1234      H1239   1.083       .  S
C1236      N1237   1.442       .  S
N1237      O1241   1.263       .  A
N1237      O1242   1.262       .  A
H1238      C2185   1.083   1_556  S
N1240      O1243   1.263       .  A
N1240      O1244   1.261       .  A
C1245      C1246   1.411       .  A
C1245      C1250   1.397       .  A
C1245      H1252   1.082       .  S
C1247      C1248   1.406       .  A
C1247      N1254   1.434   1_554  S
C1248      H1253   1.084   1_554  S
C1249      C1250   1.410       .  A
C1250      N1251   1.443       .  S
N1251      O1255   1.263       .  A
N1251      O1256   1.262       .  A
N1254      O1257   1.263       .  A
N1254      O1258   1.262       .  A
C1259      C1260   1.400       .  A
C1259      C1264   1.398       .  A
C1259      H1266   1.084       .  S
C1260      C1261   1.418       .  A
C1261      C1262   1.409       .  A
C1261      N1268   1.435       .  S
C1262      C1263   1.410       .  A
C1262      H1267   1.083       .  S
C1263      C1264   1.419       .  A
C1264      N1265   1.425       .  S
N1265      O1269   1.262       .  A
N1265      O1270   1.263       .  A
N1268      O1271   1.263       .  A
N1268      O1272   1.262       .  A
C1273      C1592   1.399       .  A
C1273      C1278   1.398       .  A
C1273      C1885   1.470       .  S
C1274      C1591   1.399       .  A
C1274      C1275   1.406       .  A
C1274      H1279   1.084       .  S
C1275      C1276   1.408       .  A
C1275      C1578   1.497       .  S
C1276      C1595   1.410       .  A
C1276      H1280   1.083       .  S
C1277      C1594   1.410       .  A
C1277      C1278   1.400       .  A
C1277      C1871   1.480       .  S
C1278      H1281   1.084       .  S
C1282      C1283   1.403       .  A
C1282      C1287   1.399       .  A
C1282      C1525   1.476       .  S
C1283      C1284   1.411       .  A
C1283      H1288   1.083       .  S
C1284      C1285   1.414       .  A
C1284      C1581   1.507       .  S
C1285      C1286   1.413       .  A
C1285      H1289   1.079       .  S
C1286      C1287   1.397       .  A
C1286      C1539   1.493       .  S
C1287      H1290   1.084       .  S
C1291      C1292   1.410       .  A
C1291      C1296   1.409       .  A
C1291      C1480   1.497       .  S
C1292      C1293   1.405       .  A
C1292      H1297   1.082       .  S
C1293      C1294   1.402       .  A
C1293      C1508   1.484       .  S
C1294      C1295   1.403       .  A
C1294      H1298   1.084       .  S
C1295      C1296   1.401       .  A
C1295      C1494   1.477       .  S
C1296      H1299   1.083       .  S
C1300      C1301   1.409       .  A
C1300      C1305   1.406       .  A
C1300      C1466   1.492       .  S
C1301      C1302   1.408       .  A
C1301      H1306   1.083       .  S
C1302      C1303   1.405       .  A
C1302      C1511   1.482   1_545  S
C1303      C1304   1.399       .  A
C1303      H1307   1.084   1_545  S
C1304      C1305   1.394       .  A
C1304      C1455   1.474       .  S
C1305      H1308   1.084       .  S
C1309      C1310   1.410       .  A
C1309      C1314   1.405       .  A
C1309      C1410   1.488       .  S
C1310      C1311   1.406       .  A
C1310      H1315   1.084       .  S
C1311      C1312   1.404       .  A
C1312      C1313   1.403       .  A
C1312      H1316   1.084       .  S
C1313      C1314   1.398       .  A
C1313      C1427   1.476       .  S
C1314      H1317   1.084       .  S
C1318      C1319   1.405       .  A
C1318      C1323   1.400       .  A
C1318      C1399   1.478       .  S
C1319      C1320   1.407       .  A
C1319      H1324   1.083       .  S
C1320      C1321   1.407       .  A
C1320      C1438   1.489       .  S
C1321      C1322   1.406       .  A
C1321      H1325   1.084       .  S
C1322      C1323   1.399       .  A
C1322      C1385   1.481       .  S
C1323      H1326   1.084       .  S
O1327      C1338   1.293       .  A
O1328      C1339   1.295       .  A
O1328     Zr1362   2.456       .  S
O1329      C1340   1.293       .  A
O1330      C1341   1.297       .  A
O1330     Zr1335   2.479       .  S
O1331      C1341   1.285       .  A
O1331     Zr1365   2.389       .  S
O1332      C1340   1.290       .  A
O1332     Zr2000   2.423       .  S
O1333      C1339   1.288       .  A
O1333     Zr1335   2.419       .  S
O1334      C1338   1.290       .  A
Zr1335     O1336   2.334       .  S
Zr1335     O1345   2.337       .  S
Zr1335     O1343   2.351       .  S
O1336     Zr1362   2.339       .  S
O1336     Zr1365   2.332       .  S
O1337     Zr2000   2.335       .  S
C1338      C1564   1.495       .  S
C1339      C1382   1.469       .  S
C1340      C1483   1.473       .  S
C1341      C1536   1.497       .  S
H1342      O1343   0.966       .  S
O1343     Zr1362   2.345       .  S
H1344      O1345   0.965       .  S
O1345     Zr1363   2.344       .  S
O1345     Zr1365   2.334       .  S
O1346      C1369   1.294       .  A
O1346     Zr1998   2.461       .  S
O1347      C2006   1.295       .  A
O1347     Zr1681   2.460       .  S
O1348     Zr1364   2.447       .  S
O1349      C1372   1.296       .  A
O1349     Zr1365   2.464       .  S
O1350      C1691   1.297       .  A
O1350     Zr1365   2.469   1_556  S
O1351      C2010   1.295       .  A
O1351     Zr1364   2.457       .  S
O1352     Zr1366   2.464       .  S
O1353      C1376   1.297       .  A
O1353     Zr1366   2.471   1_556  S
O1354      C1375   1.288       .  A
O1354     Zr1364   2.410       .  S
O1355      C2012   1.287   1_554  A
O1355     Zr1365   2.405       .  S
O1356      C1371   1.291       .  A
O1356     Zr1998   2.432       .  S
O1357      C1374   1.288       .  A
O1358      C1373   1.288       .  A
O1358     Zr1681   2.406       .  S
O1359      C1372   1.288       .  A
O1359     Zr1362   2.417       .  S
O1360      C1369   1.289       .  A
O1360     Zr1366   2.410       .  S
O1361      C1370   1.289       .  A
O1361     Zr1684   2.414       .  S
Zr1362     O1982   2.461       .  S
Zr1362     O1992   2.432       .  S
Zr1362     O2004   2.336       .  S
Zr1362     O1380   2.341       .  S
Zr1363     O1665   2.460   1_554  S
Zr1363     O1676   2.406   1_554  S
Zr1363     O1367   2.344       .  S
Zr1363     O2014   2.328       .  S
Zr1364     O1968   2.423   1_545  S
Zr1364     O1973   2.335   1_545  S
Zr1365     O1367   2.340       .  S
Zr1365     O1380   2.335       .  S
Zr1366     O1679   2.414   1_554  S
Zr1366     O2003   2.342   1_545  S
Zr1366     O1368   2.345       .  S
Zr1366     O2016   2.337       .  S
Zr1366     O1378   2.335       .  S
O1367     Zr2002   2.342       .  S
O1368     Zr1998   2.336       .  S
C1369      C1522   1.493       .  S
C1370      C1424   1.477       .  S
C1370      O1983   1.295       .  A
C1371      C1413   1.479       .  S
C1372      C1497   1.473       .  S
C1373      C1396   1.488       .  S
C1373      O1668   1.297       .  A
C1374      C2406   1.469   1_554  S
C1374      O1987   1.295       .  A
C1375      C1550   1.481       .  S
C1376      C1787   1.477       .  S
C1376      O1991   1.287   1_546  A
O1378     Zr1999   2.328   1_545  S
H1379      O2016   0.965       .  S
O1380     Zr2002   2.337       .  S
O1380      H2015   0.965       .  S
C1381      C1382   1.403       .  A
C1381      C1386   1.403       .  A
C1381      H1388   1.082       .  S
C1382      C1383   1.414       .  A
C1383      C1384   1.406       .  A
C1383      N1390   1.443       .  S
C1384      C1385   1.406       .  A
C1384      H1389   1.084       .  S
C1385      C1386   1.413       .  A
C1386      N1387   1.442       .  S
N1387      O1391   1.263       .  A
N1387      O1392   1.263       .  A
N1390      O1393   1.262       .  A
C1395      C1396   1.409       .  A
C1395      C1400   1.393       .  A
C1395      H1402   1.084       .  S
C1396      C1397   1.417       .  A
C1397      C1398   1.411       .  A
C1397      N1404   1.436       .  S
C1398      C1399   1.407       .  A
C1398      H1403   1.084       .  S
C1399      C1400   1.406       .  A
C1400      N1401   1.434       .  S
N1401      O1406   1.262       .  A
N1404      O1407   1.263       .  A
N1404      O1408   1.263       .  A
C1409      C1414   1.403       .  A
C1409      H1416   1.083       .  S
C1410      C1411   1.417       .  A
C1411      C1412   1.407       .  A
C1411      N1418   1.439       .  S
C1412      H1417   1.084       .  S
C1413      C1414   1.417       .  A
C1414      N1415   1.442       .  S
N1415      O1419   1.263       .  A
N1415      O1420   1.262       .  A
N1418      O1421   1.262       .  A
N1418      O1422   1.263       .  A
C1423      C1428   1.413       .  A
C1423      H1430   1.083       .  S
C1424      C1425   1.412       .  A
C1425      C1426   1.394       .  A
C1425      N1432   1.437       .  S
C1426      H1431   1.084       .  S
C1427      C1428   1.419       .  A
C1428      N1429   1.444       .  S
N1429      O1433   1.263       .  A
N1429      O1434   1.262       .  A
N1432      O1435   1.263       .  A
N1432      O1436   1.263       .  A
C1437      C1438   1.403       .  A
C1437      C1442   1.405       .  A
C1437      H1444   1.084       .  S
C1438      C1439   1.419       .  A
C1440      H1445   1.084       .  S
C1441      C1442   1.417       .  A
C1442      N1443   1.439       .  S
N1443      O1447   1.263       .  A
N1443      O1448   1.263       .  A
N1446      O1449   1.263       .  A
N1446      O1450   1.263       .  A
C1451      C2088   1.399       .  A
C1451      C1456   1.403       .  A
C1451      H1776   1.084       .  S
C1452      C2087   1.399   1_545  A
C1452      C1453   1.418       .  A
C1452      C2328   1.469       .  S
C1453      C1454   1.406       .  A
C1453      N1460   1.442       .  S
C1454      C1455   1.400       .  A
C1454      H1459   1.084       .  S
C1455      C2092   1.417   1_545  A
C1456      C2091   1.417       .  A
C1456      N1457   1.443       .  S
N1457      O1461   1.263       .  A
N1457      O1462   1.262       .  A
H1458      C1769   1.084       .  S
N1460      O1781   1.261       .  A
N1460      O1464   1.263       .  A
O1463      N1778   1.261       .  A
C1465      C1466   1.405       .  A
C1465      C1788   1.392       .  A
C1465      H1472   1.083   1_545  S
C1466      C1467   1.421       .  A
C1467      C1468   1.411       .  A
C1467      N1474   1.439       .  S
C1468      C1469   1.401       .  A
C1468      H1473   1.077       .  S
C1469      C1788   1.411       .  A
C1469      C1694   1.477       .  S
C1470      C1783   1.392       .  A
C1470      C1787   1.411       .  A
C1470      N1471   1.438   1_556  S
N1471      O1475   1.262       .  A
N1471      O2112   1.263   1_545  A
N1474      O1477   1.263       .  A
N1474      O1478   1.263       .  A
O1476      N2107   1.263       .  A
C1479      C1480   1.409       .  A
C1479      C1484   1.409       .  A
C1479      H1486   1.083       .  S
C1480      C1481   1.415       .  A
C1481      C1482   1.396       .  A
C1481      N1488   1.428       .  S
C1482      C1483   1.399       .  A
C1482      H1487   1.085       .  S
C1483      C1484   1.415       .  A
C1484      N1485   1.440       .  S
N1485      O1489   1.263       .  A
N1485      O1490   1.261       .  A
N1488      O1491   1.261       .  A
N1488      O1492   1.262       .  A
C1493      C1494   1.403       .  A
C1493      C1498   1.408       .  A
C1493      H1500   1.084       .  S
C1494      C1495   1.414       .  A
C1495      C1496   1.402       .  A
C1495      N2138   1.443       .  S
C1496      C1497   1.402       .  A
C1496      H2137   1.083       .  S
C1497      C1498   1.418       .  A
C1498      N1499   1.444       .  S
N1499      O1503   1.263       .  A
N1499      O1504   1.262       .  A
H1501      C2132   1.083   1_545  S
N1502      C2131   1.443   1_545  S
N1502      O1505   1.262       .  A
N1502      O1506   1.263       .  A
C1507      C1508   1.403       .  A
C1507      C1512   1.409       .  A
C1507      H1514   1.084       .  S
C1508      C2145   1.415       .  A
C1509      C2144   1.415   1_545  A
C1509      C1510   1.401       .  A
C1509      N1516   1.438       .  S
C1510      C1511   1.401   1_545  A
C1510      H1515   1.084       .  S
C1511      C2148   1.418       .  A
C1512      C2147   1.418       .  A
C1512      N1513   1.440       .  S
N1513      O1517   1.263       .  A
N1513      O1518   1.263       .  A
N1516      O1519   1.263       .  A
N1516      O1520   1.262       .  A
C1521      C1522   1.411       .  A
C1521      C1526   1.396       .  A
C1521      H1528   1.083       .  S
C1522      C1523   1.419       .  A
C1523      C1524   1.408       .  A
C1523      N1530   1.434       .  S
C1524      C1525   1.403       .  A
C1524      H1529   1.084       .  S
C1525      C1526   1.410       .  A
C1526      N1527   1.442       .  S
N1527      O1531   1.263       .  A
N1527      O1532   1.263       .  A
N1530      O1533   1.262       .  A
N1530      O1534   1.262       .  A
C1535      C1536   1.409       .  A
C1535      C1540   1.390       .  A
C1535      H1542   1.083       .  S
C1536      C1537   1.418       .  A
C1537      C1538   1.415       .  A
C1537      N1544   1.434       .  S
C1538      C1539   1.412       .  A
C1538      H1543   1.083       .  S
C1539      C1540   1.409       .  A
C1540      N1541   1.435       .  S
N1541      O1545   1.263       .  A
N1541      O1546   1.262       .  A
N1544      O1547   1.261       .  A
N1544      O1548   1.263       .  A
C1549      C1550   1.406       .  A
C1549      C1872   1.413   1_554  A
C1550      C1551   1.414       .  A
C1551      C1552   1.391       .  A
C1551      N1558   1.437       .  S
C1552      C1553   1.398       .  A
C1552      H1557   1.083       .  S
C1553      C1872   1.419   1_554  A
C1553      C1595   1.480       .  S
C1554      C1867   1.413       .  A
C1554      C1871   1.419       .  A
C1554      N1555   1.442       .  S
N1555      O1559   1.263       .  A
N1555      O1560   1.262       .  A
N1558      O1561   1.263       .  A
N1558      O1562   1.261       .  A
C1563      C1564   1.411       .  A
C1563      C1568   1.397       .  A
C1563      H1570   1.082       .  S
C1564      C1883   1.420       .  A
C1565      C1882   1.420       .  A
C1565      C1566   1.406       .  A
C1565      N1572   1.434       .  S
C1566      C1885   1.401       .  A
C1566      H1571   1.084       .  S
C1567      C1884   1.401       .  A
C1567      C1568   1.410       .  A
C1567      C1591   1.470       .  S
C1568      N1569   1.443       .  S
N1569      O1573   1.263       .  A
N1569      O1574   1.262       .  A
N1572      O1575   1.263       .  A
N1572      O1576   1.262       .  A
C1577      C1578   1.400       .  A
C1577      C1582   1.398       .  A
C1577      H1584   1.084       .  S
C1578      C1579   1.418       .  A
C1579      C1580   1.409       .  A
C1579      N1586   1.435       .  S
C1580      C1581   1.410       .  A
C1580      H1585   1.083       .  S
C1581      C1582   1.419       .  A
C1582      N1583   1.425       .  S
N1583      O1587   1.262       .  A
N1583      O1588   1.263       .  A
N1586      O1589   1.263       .  A
N1586      O1590   1.262       .  A
C1591      C1596   1.398       .  A
C1592      C1593   1.406       .  A
C1592      H1597   1.084       .  S
C1593      C1594   1.408       .  A
C1593      C1896   1.497       .  S
C1594      H1598   1.083       .  S
C1595      C1596   1.400       .  A
C1596      H1599   1.084       .  S
C1600      C1601   1.403       .  A
C1600      C1605   1.399       .  A
C1600      C1843   1.476       .  S
C1601      C1602   1.411       .  A
C1601      H1606   1.083       .  S
C1602      C1603   1.414       .  A
C1602      C1899   1.507       .  S
C1603      C1604   1.413       .  A
C1603      H1607   1.079       .  S
C1604      C1605   1.397       .  A
C1604      C1857   1.493       .  S
C1605      H1608   1.084       .  S
C1609      C1610   1.410       .  A
C1609      C1614   1.409       .  A
C1609      C1798   1.497       .  S
C1610      C1611   1.405       .  A
C1610      H1615   1.082       .  S
C1611      C1612   1.402       .  A
C1611      C1826   1.484       .  S
C1612      C1613   1.403       .  A
C1612      H1616   1.084       .  S
C1613      C1614   1.401       .  A
C1613      C1812   1.477       .  S
C1614      H1617   1.083       .  S
C1618      C1619   1.409       .  A
C1618      C1623   1.406       .  A
C1618      C1784   1.492       .  S
C1619      C1620   1.408       .  A
C1619      H1624   1.083       .  S
C1620      C1621   1.405       .  A
C1620      C1829   1.482   1_545  S
C1621      C1622   1.399       .  A
C1621      H1625   1.084   1_545  S
C1622      C1623   1.394       .  A
C1622      C1773   1.474       .  S
C1623      H1626   1.084       .  S
C1627      C1628   1.410       .  A
C1627      C1632   1.405       .  A
C1627      C1728   1.488       .  S
C1628      C1629   1.406       .  A
C1628      H1633   1.084       .  S
C1629      C1630   1.404       .  A
C1630      C1631   1.403       .  A
C1630      H1634   1.084       .  S
C1631      C1632   1.398       .  A
C1631      C1745   1.476       .  S
C1632      H1635   1.084       .  S
C1636      C1637   1.405       .  A
C1636      C1641   1.400       .  A
C1636      C1717   1.478       .  S
C1637      C1638   1.407       .  A
C1637      H1642   1.083       .  S
C1638      C1639   1.407       .  A
C1638      C1756   1.489       .  S
C1639      C1640   1.406       .  A
C1639      H1643   1.084       .  S
C1640      C1641   1.399       .  A
C1640      C1703   1.481       .  S
C1641      H1644   1.084       .  S
O1645      C1656   1.293       .  A
O1646      C1657   1.295       .  A
O1646     Zr1680   2.456       .  S
O1647      C1658   1.293       .  A
O1648      C1659   1.297       .  A
O1648     Zr1653   2.479       .  S
O1649      C1659   1.285       .  A
O1649     Zr1683   2.389       .  S
O1650      C1658   1.290       .  A
O1650     Zr2318   2.423       .  S
O1651      C1657   1.288       .  A
O1651     Zr1653   2.419       .  S
O1652      C1656   1.290       .  A
Zr1653     O1654   2.334       .  S
Zr1653     O1663   2.337       .  S
Zr1653     O1661   2.351       .  S
O1654     Zr1680   2.339       .  S
O1654     Zr1683   2.332       .  S
O1655     Zr2318   2.335       .  S
C1656      C1882   1.495       .  S
C1657      C1700   1.469       .  S
C1658      C1801   1.473       .  S
C1659      C1854   1.497       .  S
H1660      O1661   0.966       .  S
O1661     Zr1680   2.345       .  S
H1662      O1663   0.965       .  S
O1663     Zr1681   2.344       .  S
O1663     Zr1683   2.334       .  S
O1664      C1687   1.294       .  A
O1664     Zr2316   2.461       .  S
O1665      C2324   1.295       .  A
O1666     Zr1682   2.447       .  S
O1667      C1690   1.296       .  A
O1667     Zr1683   2.464       .  S
O1668     Zr1683   2.469       .  S
O1669      C2328   1.295       .  A
O1669     Zr1682   2.457       .  S
O1670     Zr1684   2.464       .  S
O1671      C1694   1.297       .  A
O1671     Zr1684   2.471       .  S
O1672      C1693   1.288       .  A
O1672     Zr1682   2.410       .  S
O1673      C2330   1.287       .  A
O1673     Zr1683   2.405       .  S
O1674      C1689   1.291       .  A
O1674     Zr2316   2.432       .  S
O1675      C1692   1.288       .  A
O1676      C1691   1.288       .  A
O1677      C1690   1.288       .  A
O1677     Zr1680   2.417       .  S
O1678      C1687   1.289       .  A
O1678     Zr1684   2.410       .  S
O1679      C1688   1.289       .  A
Zr1680     O2300   2.461       .  S
Zr1680     O2310   2.432       .  S
Zr1680     O2322   2.336       .  S
Zr1680     O1698   2.341       .  S
Zr1681     O1685   2.344       .  S
Zr1681     O2332   2.328       .  S
Zr1682     O2286   2.423   1_545  S
Zr1682     O2291   2.335   1_545  S
Zr1683     O1685   2.340       .  S
Zr1683     O1698   2.335       .  S
Zr1684     O2321   2.342   1_545  S
Zr1684     O1686   2.345       .  S
Zr1684     O2334   2.337       .  S
Zr1684     O1696   2.335       .  S
O1685     Zr2320   2.342       .  S
O1686     Zr2316   2.336       .  S
C1687      C1840   1.493       .  S
C1688      C1742   1.477       .  S
C1688      O2301   1.295       .  A
C1689      C1731   1.479       .  S
C1690      C1815   1.473       .  S
C1691      C1714   1.488       .  S
C1692      C2088   1.469       .  S
C1692      O2305   1.295       .  A
C1693      C1868   1.481       .  S
C1694      O2309   1.287   1_545  A
O1696     Zr2317   2.328   1_545  S
H1697      O2334   0.965       .  S
O1698     Zr2320   2.337       .  S
O1698      H2333   0.965       .  S
C1699      C1700   1.403       .  A
C1699      C1704   1.403       .  A
C1699      H1706   1.082       .  S
C1700      C1701   1.414       .  A
C1701      C1702   1.406       .  A
C1701      N1708   1.443       .  S
C1702      C1703   1.406       .  A
C1702      H1707   1.084       .  S
C1703      C1704   1.413       .  A
C1704      N1705   1.442       .  S
N1705      O1709   1.263       .  A
N1705      O1710   1.263       .  A
N1708      O1711   1.262       .  A
C1713      C1714   1.409       .  A
C1713      C1718   1.393       .  A
C1713      H1720   1.084       .  S
C1714      C1715   1.417       .  A
C1715      C1716   1.411       .  A
C1715      N1722   1.436       .  S
C1716      C1717   1.407       .  A
C1716      H1721   1.084       .  S
C1717      C1718   1.406       .  A
C1718      N1719   1.434       .  S
N1719      O1724   1.262       .  A
N1722      O1725   1.263       .  A
N1722      O1726   1.263       .  A
C1727      C1732   1.403       .  A
C1727      H1734   1.083       .  S
C1728      C1729   1.417       .  A
C1729      C1730   1.407       .  A
C1729      N1736   1.439       .  S
C1730      H1735   1.084       .  S
C1731      C1732   1.417       .  A
C1732      N1733   1.442       .  S
N1733      O1737   1.263       .  A
N1733      O1738   1.262       .  A
N1736      O1739   1.262       .  A
N1736      O1740   1.263       .  A
C1741      C1746   1.413       .  A
C1741      H1748   1.083       .  S
C1742      C1743   1.412       .  A
C1743      C1744   1.394       .  A
C1743      N1750   1.437       .  S
C1744      H1749   1.084       .  S
C1745      C1746   1.419       .  A
C1746      N1747   1.444       .  S
N1747      O1751   1.263       .  A
N1747      O1752   1.262       .  A
N1750      O1753   1.263       .  A
N1750      O1754   1.263       .  A
C1755      C1756   1.403       .  A
C1755      C1760   1.405       .  A
C1755      H1762   1.084       .  S
C1756      C1757   1.419       .  A
C1758      H1763   1.084       .  S
C1759      C1760   1.417       .  A
C1760      N1761   1.439       .  S
N1761      O1765   1.263       .  A
N1761      O1766   1.263       .  A
N1764      O1767   1.263       .  A
N1764      O1768   1.263       .  A
C1769      C2406   1.399   1_554  A
C1769      C1774   1.403   1_554  A
C1770      C2405   1.399   1_546  A
C1770      C1771   1.418       .  A
C1770      C2010   1.469   1_556  S
C1771      C1772   1.406       .  A
C1771      N1778   1.442       .  S
C1772      C1773   1.400       .  A
C1772      H1777   1.084       .  S
C1773      C2410   1.417   1_545  A
C1774      C2409   1.417       .  A
C1774      N1775   1.443       .  S
N1775      O1779   1.263   1_556  A
N1775      O1780   1.262       .  A
N1778      O1782   1.263       .  A
C1783      C1784   1.405       .  A
C1783      H1790   1.083   1_545  S
C1784      C1785   1.421       .  A
C1785      C1786   1.411       .  A
C1785      N1792   1.439       .  S
C1786      C1787   1.401       .  A
C1786      H1791   1.077       .  S
C1788      N1789   1.438       .  S
N1789      O1793   1.262       .  A
N1789      O2430   1.263   1_545  A
N1792      O1795   1.263       .  A
N1792      O1796   1.263       .  A
O1794      N2425   1.263       .  A
C1797      C1798   1.409       .  A
C1797      C1802   1.409       .  A
C1797      H1804   1.083       .  S
C1798      C1799   1.415       .  A
C1799      C1800   1.396       .  A
C1799      N1806   1.428       .  S
C1800      C1801   1.399       .  A
C1800      H1805   1.085       .  S
C1801      C1802   1.415       .  A
C1802      N1803   1.440       .  S
N1803      O1807   1.263       .  A
N1803      O1808   1.261       .  A
N1806      O1809   1.261       .  A
N1806      O1810   1.262       .  A
C1811      C1812   1.403       .  A
C1811      C1816   1.408       .  A
C1811      H1818   1.084       .  S
C1812      C1813   1.414       .  A
C1813      C1814   1.402       .  A
C1813      N2456   1.443       .  S
C1814      C1815   1.402       .  A
C1814      H2455   1.083       .  S
C1815      C1816   1.418       .  A
C1816      N1817   1.444       .  S
N1817      O1821   1.263       .  A
N1817      O1822   1.262       .  A
H1819      C2450   1.083   1_545  S
N1820      C2449   1.443   1_545  S
N1820      O1823   1.262       .  A
N1820      O1824   1.263       .  A
C1825      C1826   1.403       .  A
C1825      C1830   1.409       .  A
C1825      H1832   1.084       .  S
C1826      C2463   1.415       .  A
C1827      C2462   1.415   1_545  A
C1827      C1828   1.401       .  A
C1827      N1834   1.438       .  S
C1828      C1829   1.401   1_545  A
C1828      H1833   1.084       .  S
C1829      C2466   1.418       .  A
C1830      C2465   1.418       .  A
C1830      N1831   1.440       .  S
N1831      O1835   1.263       .  A
N1831      O1836   1.263       .  A
N1834      O1837   1.263       .  A
N1834      O1838   1.262       .  A
C1839      C1840   1.411       .  A
C1839      C1844   1.396       .  A
C1839      H1846   1.083       .  S
C1840      C1841   1.419       .  A
C1841      C1842   1.408       .  A
C1841      N1848   1.434       .  S
C1842      C1843   1.403       .  A
C1842      H1847   1.084       .  S
C1843      C1844   1.410       .  A
C1844      N1845   1.442       .  S
N1845      O1849   1.263       .  A
N1845      O1850   1.263       .  A
N1848      O1851   1.262       .  A
N1848      O1852   1.262       .  A
C1853      C1854   1.409       .  A
C1853      C1858   1.390       .  A
C1853      H1860   1.083       .  S
C1854      C1855   1.418       .  A
C1855      C1856   1.415       .  A
C1855      N1862   1.434       .  S
C1856      C1857   1.412       .  A
C1856      H1861   1.083       .  S
C1857      C1858   1.409       .  A
C1858      N1859   1.435       .  S
N1859      O1863   1.263       .  A
N1859      O1864   1.262       .  A
N1862      O1865   1.261       .  A
N1862      O1866   1.263       .  A
C1867      C1868   1.406       .  A
C1868      C1869   1.414       .  A
C1869      C1870   1.391       .  A
C1869      N1876   1.437       .  S
C1870      C1871   1.398       .  A
C1870      H1875   1.083       .  S
C1872      N1873   1.442       .  S
N1873      O1877   1.263       .  A
N1873      O1878   1.262       .  A
N1876      O1879   1.263       .  A
N1876      O1880   1.261       .  A
C1881      C1882   1.411       .  A
C1881      C1886   1.397       .  A
C1881      H1888   1.082       .  S
C1883      C1884   1.406       .  A
C1883      N1890   1.434   1_554  S
C1884      H1889   1.084   1_554  S
C1885      C1886   1.410       .  A
C1886      N1887   1.443       .  S
N1887      O1891   1.263       .  A
N1887      O1892   1.262       .  A
N1890      O1893   1.263       .  A
N1890      O1894   1.262       .  A
C1895      C1896   1.400       .  A
C1895      C1900   1.398       .  A
C1895      H1902   1.084       .  S
C1896      C1897   1.418       .  A
C1897      C1898   1.409       .  A
C1897      N1904   1.435       .  S
C1898      C1899   1.410       .  A
C1898      H1903   1.083       .  S
C1899      C1900   1.419       .  A
C1900      N1901   1.425       .  S
N1901      O1905   1.262       .  A
N1901      O1906   1.263       .  A
N1904      O1907   1.263       .  A
N1904      O1908   1.262       .  A
C1909      C2228   1.399       .  A
C1909      C1914   1.398       .  A
C1909      C2521   1.470       .  S
C1910      C2227   1.399       .  A
C1910      C1911   1.406       .  A
C1910      H1915   1.084       .  S
C1911      C1912   1.408       .  A
C1911      C2214   1.497       .  S
C1912      C2231   1.410       .  A
C1912      H1916   1.083       .  S
C1913      C2230   1.410       .  A
C1913      C1914   1.400       .  A
C1913      C2507   1.480       .  S
C1914      H1917   1.084       .  S
C1918      C1919   1.403       .  A
C1918      C1923   1.399       .  A
C1918      C2161   1.476       .  S
C1919      C1920   1.411       .  A
C1919      H1924   1.083       .  S
C1920      C1921   1.414       .  A
C1920      C2217   1.507       .  S
C1921      C1922   1.413       .  A
C1921      H1925   1.079       .  S
C1922      C1923   1.397       .  A
C1922      C2175   1.493       .  S
C1923      H1926   1.084       .  S
C1927      C1928   1.410       .  A
C1927      C1932   1.409       .  A
C1927      C2116   1.497       .  S
C1928      C1929   1.405       .  A
C1928      H1933   1.082       .  S
C1929      C1930   1.402       .  A
C1929      C2144   1.484       .  S
C1930      C1931   1.403       .  A
C1930      H1934   1.084       .  S
C1931      C1932   1.401       .  A
C1931      C2130   1.477       .  S
C1932      H1935   1.083       .  S
C1936      C1937   1.409       .  A
C1936      C1941   1.406       .  A
C1936      C2102   1.492       .  S
C1937      C1938   1.408       .  A
C1937      H1942   1.083       .  S
C1938      C1939   1.405       .  A
C1938      C2147   1.482       .  S
C1939      C1940   1.399       .  A
C1939      H1943   1.084       .  S
C1940      C1941   1.394       .  A
C1940      C2091   1.474       .  S
C1941      H1944   1.084       .  S
C1945      C1946   1.410       .  A
C1945      C1950   1.405       .  A
C1945      C2046   1.488       .  S
C1946      C1947   1.406       .  A
C1946      H1951   1.084       .  S
C1947      C1948   1.404       .  A
C1948      C1949   1.403       .  A
C1948      H1952   1.084       .  S
C1949      C1950   1.398       .  A
C1949      C2063   1.476       .  S
C1950      H1953   1.084       .  S
C1954      C1955   1.405       .  A
C1954      C1959   1.400       .  A
C1954      C2035   1.478       .  S
C1955      C1956   1.407       .  A
C1955      H1960   1.083       .  S
C1956      C1957   1.407       .  A
C1956      C2074   1.489       .  S
C1957      C1958   1.406       .  A
C1957      H1961   1.084       .  S
C1958      C1959   1.399       .  A
C1958      C2021   1.481       .  S
C1959      H1962   1.084       .  S
O1963      C1974   1.293       .  A
O1964      C1975   1.295       .  A
O1964     Zr1998   2.456   1_565  S
O1965      C1976   1.293       .  A
O1966      C1977   1.297       .  A
O1966     Zr1971   2.479       .  S
O1967      C1977   1.285       .  A
O1967     Zr2001   2.389       .  S
O1968      C1976   1.290       .  A
O1969      C1975   1.288       .  A
O1969     Zr1971   2.419       .  S
O1970      C1974   1.290       .  A
Zr1971     O1972   2.334       .  S
Zr1971     O1981   2.337       .  S
Zr1971     O1979   2.351       .  S
O1972     Zr1998   2.339   1_565  S
O1972     Zr2001   2.332       .  S
C1974      C2200   1.495       .  S
C1975      C2018   1.469       .  S
C1976      C2119   1.473       .  S
C1977      C2172   1.497       .  S
H1978      O1979   0.966       .  S
O1979     Zr1998   2.345   1_565  S
H1980      O1981   0.965       .  S
O1981     Zr1999   2.344       .  S
O1981     Zr2001   2.334       .  S
O1982      C2005   1.294       .  A
O1983     Zr2317   2.460   1_545  S
O1984     Zr2000   2.447       .  S
O1985      C2008   1.296       .  A
O1985     Zr2001   2.464       .  S
O1986      C2327   1.297       .  A
O1986     Zr2001   2.469   1_556  S
O1987     Zr2000   2.457       .  S
O1988     Zr2002   2.464       .  S
O1989      C2012   1.297       .  A
O1989     Zr2002   2.471   1_556  S
O1990      C2011   1.288       .  A
O1990     Zr2000   2.410       .  S
O1991     Zr2001   2.405       .  S
O1992      C2007   1.291       .  A
O1993      C2010   1.288   1_565  A
O1994      C2009   1.288       .  A
O1994     Zr2317   2.406       .  S
O1995      C2008   1.288       .  A
O1995     Zr1998   2.417   1_565  S
O1996      C2005   1.289       .  A
O1996     Zr2002   2.410       .  S
O1997      C2006   1.289       .  A
O1997     Zr2320   2.414       .  S
Zr1998     O2016   2.341       .  S
Zr1999     O2301   2.460   1_564  S
Zr1999     O2312   2.406   1_554  S
Zr1999     O2003   2.344       .  S
Zr2001     O2003   2.340       .  S
Zr2001     O2016   2.335   1_565  S
Zr2002     O2315   2.414   1_554  S
Zr2002     O2004   2.345       .  S
Zr2002     O2014   2.335       .  S
C2005      C2158   1.493       .  S
C2006      C2060   1.477       .  S
C2007      C2049   1.479       .  S
C2008      C2133   1.473       .  S
C2009      C2032   1.488       .  S
C2009      O2304   1.297       .  A
C2011      C2186   1.481       .  S
C2012      C2423   1.477       .  S
C2017      C2018   1.403       .  A
C2017      C2022   1.403       .  A
C2017      H2024   1.082       .  S
C2018      C2019   1.414       .  A
C2019      C2020   1.406       .  A
C2019      N2026   1.443       .  S
C2020      C2021   1.406       .  A
C2020      H2025   1.084       .  S
C2021      C2022   1.413       .  A
C2022      N2023   1.442       .  S
N2023      O2027   1.263       .  A
N2023      O2028   1.263       .  A
N2026      O2029   1.262       .  A
C2031      C2032   1.409       .  A
C2031      C2036   1.393       .  A
C2031      H2038   1.084       .  S
C2032      C2033   1.417       .  A
C2033      C2034   1.411       .  A
C2033      N2040   1.436       .  S
C2034      C2035   1.407       .  A
C2034      H2039   1.084       .  S
C2035      C2036   1.406       .  A
C2036      N2037   1.434       .  S
N2037      O2042   1.262       .  A
N2040      O2043   1.263       .  A
N2040      O2044   1.263       .  A
C2045      C2050   1.403       .  A
C2045      H2052   1.083       .  S
C2046      C2047   1.417       .  A
C2047      C2048   1.407       .  A
C2047      N2054   1.439       .  S
C2048      H2053   1.084       .  S
C2049      C2050   1.417       .  A
C2050      N2051   1.442       .  S
N2051      O2055   1.263       .  A
N2051      O2056   1.262       .  A
N2054      O2057   1.262       .  A
N2054      O2058   1.263       .  A
C2059      C2064   1.413       .  A
C2059      H2066   1.083       .  S
C2060      C2061   1.412       .  A
C2061      C2062   1.394       .  A
C2061      N2068   1.437       .  S
C2062      H2067   1.084       .  S
C2063      C2064   1.419       .  A
C2064      N2065   1.444       .  S
N2065      O2069   1.263       .  A
N2065      O2070   1.262       .  A
N2068      O2071   1.263       .  A
N2068      O2072   1.263       .  A
C2073      C2074   1.403       .  A
C2073      C2078   1.405       .  A
C2073      H2080   1.084       .  S
C2074      C2075   1.419       .  A
C2076      H2081   1.084       .  S
C2077      C2078   1.417       .  A
C2078      N2079   1.439       .  S
N2079      O2083   1.263       .  A
N2079      O2084   1.263       .  A
N2082      O2085   1.263       .  A
N2082      O2086   1.263       .  A
C2087      C2092   1.403       .  A
C2087      H2412   1.084       .  S
C2088      C2089   1.418       .  A
C2089      C2090   1.406       .  A
C2089      N2096   1.442       .  S
C2090      C2091   1.400       .  A
C2090      H2095   1.084       .  S
C2092      N2093   1.443       .  S
N2093      O2097   1.263       .  A
N2093      O2098   1.262       .  A
H2094      C2405   1.084       .  S
N2096      O2417   1.261       .  A
N2096      O2100   1.263       .  A
O2099      N2414   1.261       .  A
C2101      C2102   1.405       .  A
C2101      C2424   1.392       .  A
C2101      H2108   1.083       .  S
C2102      C2103   1.421       .  A
C2103      C2104   1.411       .  A
C2103      N2110   1.439       .  S
C2104      C2105   1.401       .  A
C2104      H2109   1.077       .  S
C2105      C2424   1.411       .  A
C2105      C2330   1.477       .  S
C2106      C2419   1.392       .  A
C2106      C2423   1.411       .  A
C2106      N2107   1.438   1_556  S
N2107      O2111   1.262       .  A
N2110      O2113   1.263       .  A
N2110      O2114   1.263       .  A
C2115      C2116   1.409       .  A
C2115      C2120   1.409       .  A
C2115      H2122   1.083       .  S
C2116      C2117   1.415       .  A
C2117      C2118   1.396       .  A
C2117      N2124   1.428       .  S
C2118      C2119   1.399       .  A
C2118      H2123   1.085       .  S
C2119      C2120   1.415       .  A
C2120      N2121   1.440       .  S
N2121      O2125   1.263       .  A
N2121      O2126   1.261       .  A
N2124      O2127   1.261   1_565  A
N2124      O2128   1.262       .  A
C2129      C2130   1.403       .  A
C2129      C2134   1.408       .  A
C2129      H2136   1.084       .  S
C2130      C2131   1.414       .  A
C2131      C2132   1.402       .  A
C2132      C2133   1.402       .  A
C2133      C2134   1.418       .  A
C2134      N2135   1.444       .  S
N2135      O2139   1.263       .  A
N2135      O2140   1.262       .  A
N2138      O2141   1.262       .  A
N2138      O2142   1.263       .  A
C2143      C2144   1.403       .  A
C2143      C2148   1.409       .  A
C2143      H2150   1.084       .  S
C2145      C2146   1.401       .  A
C2145      N2152   1.438       .  S
C2146      C2147   1.401       .  A
C2146      H2151   1.084       .  S
C2148      N2149   1.440       .  S
N2149      O2153   1.263       .  A
N2149      O2154   1.263       .  A
N2152      O2155   1.263       .  A
N2152      O2156   1.262       .  A
C2157      C2158   1.411       .  A
C2157      C2162   1.396       .  A
C2157      H2164   1.083       .  S
C2158      C2159   1.419       .  A
C2159      C2160   1.408       .  A
C2159      N2166   1.434       .  S
C2160      C2161   1.403       .  A
C2160      H2165   1.084       .  S
C2161      C2162   1.410       .  A
C2162      N2163   1.442       .  S
N2163      O2167   1.263       .  A
N2163      O2168   1.263       .  A
N2166      O2169   1.262       .  A
N2166      O2170   1.262       .  A
C2171      C2172   1.409       .  A
C2171      C2176   1.390       .  A
C2171      H2178   1.083       .  S
C2172      C2173   1.418       .  A
C2173      C2174   1.415       .  A
C2173      N2180   1.434       .  S
C2174      C2175   1.412       .  A
C2174      H2179   1.083       .  S
C2175      C2176   1.409       .  A
C2176      N2177   1.435       .  S
N2177      O2181   1.263       .  A
N2177      O2182   1.262       .  A
N2180      O2183   1.261       .  A
N2180      O2184   1.263       .  A
C2185      C2186   1.406       .  A
C2185      C2508   1.413   1_554  A
C2186      C2187   1.414       .  A
C2187      C2188   1.391       .  A
C2187      N2194   1.437       .  S
C2188      C2189   1.398       .  A
C2188      H2193   1.083       .  S
C2189      C2508   1.419   1_554  A
C2189      C2231   1.480       .  S
C2190      C2503   1.413       .  A
C2190      C2507   1.419       .  A
C2190      N2191   1.442       .  S
N2191      O2195   1.263       .  A
N2191      O2196   1.262       .  A
N2194      O2197   1.263       .  A
N2194      O2198   1.261       .  A
C2199      C2200   1.411       .  A
C2199      C2204   1.397       .  A
C2199      H2206   1.082       .  S
C2200      C2519   1.420       .  A
C2201      C2518   1.420       .  A
C2201      C2202   1.406       .  A
C2201      N2208   1.434       .  S
C2202      C2521   1.401       .  A
C2202      H2207   1.084       .  S
C2203      C2520   1.401       .  A
C2203      C2204   1.410       .  A
C2203      C2227   1.470       .  S
C2204      N2205   1.443       .  S
N2205      O2209   1.263       .  A
N2205      O2210   1.262       .  A
N2208      O2211   1.263       .  A
N2208      O2212   1.262       .  A
C2213      C2214   1.400       .  A
C2213      C2218   1.398       .  A
C2213      H2220   1.084       .  S
C2214      C2215   1.418       .  A
C2215      C2216   1.409       .  A
C2215      N2222   1.435       .  S
C2216      C2217   1.410       .  A
C2216      H2221   1.083       .  S
C2217      C2218   1.419       .  A
C2218      N2219   1.425       .  S
N2219      O2223   1.262       .  A
N2219      O2224   1.263       .  A
N2222      O2225   1.263       .  A
N2222      O2226   1.262       .  A
C2227      C2232   1.398       .  A
C2228      C2229   1.406       .  A
C2228      H2233   1.084       .  S
C2229      C2230   1.408       .  A
C2229      C2532   1.497       .  S
C2230      H2234   1.083       .  S
C2231      C2232   1.400       .  A
C2232      H2235   1.084       .  S
C2236      C2237   1.403       .  A
C2236      C2241   1.399       .  A
C2236      C2479   1.476       .  S
C2237      C2238   1.411       .  A
C2237      H2242   1.083       .  S
C2238      C2239   1.414       .  A
C2238      C2535   1.507       .  S
C2239      C2240   1.413       .  A
C2239      H2243   1.079       .  S
C2240      C2241   1.397       .  A
C2240      C2493   1.493       .  S
C2241      H2244   1.084       .  S
C2245      C2246   1.410       .  A
C2245      C2250   1.409       .  A
C2245      C2434   1.497       .  S
C2246      C2247   1.405       .  A
C2246      H2251   1.082       .  S
C2247      C2248   1.402       .  A
C2247      C2462   1.484       .  S
C2248      C2249   1.403       .  A
C2248      H2252   1.084       .  S
C2249      C2250   1.401       .  A
C2249      C2448   1.477       .  S
C2250      H2253   1.083       .  S
C2254      C2255   1.409       .  A
C2254      C2259   1.406       .  A
C2254      C2420   1.492       .  S
C2255      C2256   1.408       .  A
C2255      H2260   1.083       .  S
C2256      C2257   1.405       .  A
C2256      C2465   1.482       .  S
C2257      C2258   1.399       .  A
C2257      H2261   1.084       .  S
C2258      C2259   1.394       .  A
C2258      C2409   1.474       .  S
C2259      H2262   1.084       .  S
C2263      C2264   1.410       .  A
C2263      C2268   1.405       .  A
C2263      C2364   1.488       .  S
C2264      C2265   1.406       .  A
C2264      H2269   1.084       .  S
C2265      C2266   1.404       .  A
C2266      C2267   1.403       .  A
C2266      H2270   1.084       .  S
C2267      C2268   1.398       .  A
C2267      C2381   1.476       .  S
C2268      H2271   1.084       .  S
C2272      C2273   1.405       .  A
C2272      C2277   1.400       .  A
C2272      C2353   1.478       .  S
C2273      C2274   1.407       .  A
C2273      H2278   1.083       .  S
C2274      C2275   1.407       .  A
C2274      C2392   1.489       .  S
C2275      C2276   1.406       .  A
C2275      H2279   1.084       .  S
C2276      C2277   1.399       .  A
C2276      C2339   1.481       .  S
C2277      H2280   1.084       .  S
O2281      C2292   1.293       .  A
O2282      C2293   1.295       .  A
O2282     Zr2316   2.456   1_565  S
O2283      C2294   1.293       .  A
O2284      C2295   1.297       .  A
O2284     Zr2289   2.479       .  S
O2285      C2295   1.285       .  A
O2285     Zr2319   2.389       .  S
O2286      C2294   1.290       .  A
O2287      C2293   1.288       .  A
O2287     Zr2289   2.419       .  S
O2288      C2292   1.290       .  A
Zr2289     O2290   2.334       .  S
Zr2289     O2299   2.337       .  S
Zr2289     O2297   2.351       .  S
O2290     Zr2316   2.339   1_565  S
O2290     Zr2319   2.332       .  S
C2292      C2518   1.495       .  S
C2293      C2336   1.469       .  S
C2294      C2437   1.473       .  S
C2295      C2490   1.497       .  S
H2296      O2297   0.966       .  S
O2297     Zr2316   2.345   1_565  S
H2298      O2299   0.965       .  S
O2299     Zr2317   2.344       .  S
O2299     Zr2319   2.334       .  S
O2300      C2323   1.294       .  A
O2302     Zr2318   2.447       .  S
O2303      C2326   1.296       .  A
O2303     Zr2319   2.464       .  S
O2304     Zr2319   2.469       .  S
O2305     Zr2318   2.457       .  S
O2306     Zr2320   2.464       .  S
O2307      C2330   1.297       .  A
O2307     Zr2320   2.471       .  S
O2308      C2329   1.288       .  A
O2308     Zr2318   2.410       .  S
O2309     Zr2319   2.405       .  S
O2310      C2325   1.291       .  A
O2311      C2328   1.288   1_565  A
O2312      C2327   1.288       .  A
O2313      C2326   1.288       .  A
O2313     Zr2316   2.417   1_565  S
O2314      C2323   1.289       .  A
O2314     Zr2320   2.410       .  S
O2315      C2324   1.289       .  A
Zr2316     O2334   2.341       .  S
Zr2317     O2321   2.344       .  S
Zr2319     O2321   2.340       .  S
Zr2319     O2334   2.335   1_565  S
Zr2320     O2322   2.345       .  S
Zr2320     O2332   2.335       .  S
C2323      C2476   1.493       .  S
C2324      C2378   1.477       .  S
C2325      C2367   1.479       .  S
C2326      C2451   1.473       .  S
C2327      C2350   1.488       .  S
C2329      C2504   1.481       .  S
C2335      C2336   1.403       .  A
C2335      C2340   1.403       .  A
C2335      H2342   1.082       .  S
C2336      C2337   1.414       .  A
C2337      C2338   1.406       .  A
C2337      N2344   1.443       .  S
C2338      C2339   1.406       .  A
C2338      H2343   1.084       .  S
C2339      C2340   1.413       .  A
C2340      N2341   1.442       .  S
N2341      O2345   1.263       .  A
N2341      O2346   1.263       .  A
N2344      O2347   1.262       .  A
C2349      C2350   1.409       .  A
C2349      C2354   1.393       .  A
C2349      H2356   1.084       .  S
C2350      C2351   1.417       .  A
C2351      C2352   1.411       .  A
C2351      N2358   1.436       .  S
C2352      C2353   1.407       .  A
C2352      H2357   1.084       .  S
C2353      C2354   1.406       .  A
C2354      N2355   1.434       .  S
N2355      O2360   1.262       .  A
N2358      O2361   1.263       .  A
N2358      O2362   1.263       .  A
C2363      C2368   1.403       .  A
C2363      H2370   1.083       .  S
C2364      C2365   1.417       .  A
C2365      C2366   1.407       .  A
C2365      N2372   1.439       .  S
C2366      H2371   1.084       .  S
C2367      C2368   1.417       .  A
C2368      N2369   1.442       .  S
N2369      O2373   1.263       .  A
N2369      O2374   1.262       .  A
N2372      O2375   1.262       .  A
N2372      O2376   1.263       .  A
C2377      C2382   1.413       .  A
C2377      H2384   1.083       .  S
C2378      C2379   1.412       .  A
C2379      C2380   1.394       .  A
C2379      N2386   1.437       .  S
C2380      H2385   1.084       .  S
C2381      C2382   1.419       .  A
C2382      N2383   1.444       .  S
N2383      O2387   1.263       .  A
N2383      O2388   1.262       .  A
N2386      O2389   1.263       .  A
N2386      O2390   1.263       .  A
C2391      C2392   1.403       .  A
C2391      C2396   1.405       .  A
C2391      H2398   1.084       .  S
C2392      C2393   1.419       .  A
C2394      H2399   1.084       .  S
C2395      C2396   1.417       .  A
C2396      N2397   1.439       .  S
N2397      O2401   1.263       .  A
N2397      O2402   1.263       .  A
N2400      O2403   1.263       .  A
N2400      O2404   1.263       .  A
C2405      C2410   1.403   1_554  A
C2406      C2407   1.418       .  A
C2407      C2408   1.406       .  A
C2407      N2414   1.442       .  S
C2408      C2409   1.400       .  A
C2408      H2413   1.084       .  S
C2410      N2411   1.443       .  S
N2411      O2415   1.263   1_556  A
N2411      O2416   1.262       .  A
N2414      O2418   1.263       .  A
C2419      C2420   1.405       .  A
C2419      H2426   1.083       .  S
C2420      C2421   1.421       .  A
C2421      C2422   1.411       .  A
C2421      N2428   1.439       .  S
C2422      C2423   1.401       .  A
C2422      H2427   1.077       .  S
C2424      N2425   1.438       .  S
N2425      O2429   1.262       .  A
N2428      O2431   1.263       .  A
N2428      O2432   1.263       .  A
C2433      C2434   1.409       .  A
C2433      C2438   1.409       .  A
C2433      H2440   1.083       .  S
C2434      C2435   1.415       .  A
C2435      C2436   1.396       .  A
C2435      N2442   1.428       .  S
C2436      C2437   1.399       .  A
C2436      H2441   1.085       .  S
C2437      C2438   1.415       .  A
C2438      N2439   1.440       .  S
N2439      O2443   1.263       .  A
N2439      O2444   1.261       .  A
N2442      O2445   1.261   1_565  A
N2442      O2446   1.262       .  A
C2447      C2448   1.403       .  A
C2447      C2452   1.408       .  A
C2447      H2454   1.084       .  S
C2448      C2449   1.414       .  A
C2449      C2450   1.402       .  A
C2450      C2451   1.402       .  A
C2451      C2452   1.418       .  A
C2452      N2453   1.444       .  S
N2453      O2457   1.263       .  A
N2453      O2458   1.262       .  A
N2456      O2459   1.262       .  A
N2456      O2460   1.263       .  A
C2461      C2462   1.403       .  A
C2461      C2466   1.409       .  A
C2461      H2468   1.084       .  S
C2463      C2464   1.401       .  A
C2463      N2470   1.438       .  S
C2464      C2465   1.401       .  A
C2464      H2469   1.084       .  S
C2466      N2467   1.440       .  S
N2467      O2471   1.263       .  A
N2467      O2472   1.263       .  A
N2470      O2473   1.263       .  A
N2470      O2474   1.262       .  A
C2475      C2476   1.411       .  A
C2475      C2480   1.396       .  A
C2475      H2482   1.083       .  S
C2476      C2477   1.419       .  A
C2477      C2478   1.408       .  A
C2477      N2484   1.434       .  S
C2478      C2479   1.403       .  A
C2478      H2483   1.084       .  S
C2479      C2480   1.410       .  A
C2480      N2481   1.442       .  S
N2481      O2485   1.263       .  A
N2481      O2486   1.263       .  A
N2484      O2487   1.262       .  A
N2484      O2488   1.262       .  A
C2489      C2490   1.409       .  A
C2489      C2494   1.390       .  A
C2489      H2496   1.083       .  S
C2490      C2491   1.418       .  A
C2491      C2492   1.415       .  A
C2491      N2498   1.434       .  S
C2492      C2493   1.412       .  A
C2492      H2497   1.083       .  S
C2493      C2494   1.409       .  A
C2494      N2495   1.435       .  S
N2495      O2499   1.263       .  A
N2495      O2500   1.262       .  A
N2498      O2501   1.261       .  A
N2498      O2502   1.263       .  A
C2503      C2504   1.406       .  A
C2504      C2505   1.414       .  A
C2505      C2506   1.391       .  A
C2505      N2512   1.437       .  S
C2506      C2507   1.398       .  A
C2506      H2511   1.083       .  S
C2508      N2509   1.442       .  S
N2509      O2513   1.263       .  A
N2509      O2514   1.262       .  A
N2512      O2515   1.263       .  A
N2512      O2516   1.261       .  A
C2517      C2518   1.411       .  A
C2517      C2522   1.397       .  A
C2517      H2524   1.082       .  S
C2519      C2520   1.406       .  A
C2519      N2526   1.434   1_554  S
C2520      H2525   1.084   1_554  S
C2521      C2522   1.410       .  A
C2522      N2523   1.443       .  S
N2523      O2527   1.263       .  A
N2523      O2528   1.262       .  A
N2526      O2529   1.263       .  A
N2526      O2530   1.262       .  A
C2531      C2532   1.400       .  A
C2531      C2536   1.398       .  A
C2531      H2538   1.084       .  S
C2532      C2533   1.418       .  A
C2533      C2534   1.409       .  A
C2533      N2540   1.435       .  S
C2534      C2535   1.410       .  A
C2534      H2539   1.083       .  S
C2535      C2536   1.419       .  A
C2536      N2537   1.425       .  S
N2537      O2541   1.262       .  A
N2537      O2542   1.263       .  A
N2540      O2543   1.263       .  A
N2540      O2544   1.262       .  A
