geometry optimzed in LAMMPS
_audit_creation_date              2020-11-30 
_audit_creation_method            'lammps2cif' 
_symmetry_space_group_name_H-M    'P1' 
_symmetry_Int_Tables_number       1 
_symmetry_cell_setting            triclinic 
loop_ 
_symmetry_equiv_pos_as_xyz 
  x,y,z 
_cell_length_a                    47.29179684527728 
_cell_length_b                    28.29277929589807 
_cell_length_c                    36.517374368068175 
_cell_angle_alpha                 89.93909780185999 
_cell_angle_beta                  90.0627078778496 
_cell_angle_gamma                 90.00203942095084 
loop_ 
_atom_site_label 
_atom_site_type_symbol 
_atom_site_fract_x 
_atom_site_fract_y 
_atom_site_fract_z 
_atom_site_charge 
C1          C  0.02605217  0.63788303  0.99690148     0.02850
C2          C  0.02595566  0.58851030  0.49998365    -0.13300
C3          C  0.50010509  0.56282196  0.50237915     0.00350
C4          C  0.47449818  0.58949719  0.50352376    -0.11820
C5          C  0.47468744  0.63883563  0.99933261     0.02840
C6          C  0.00038140  0.66161941  0.99387623    -0.11240
H7          H  0.04625119  0.57138901  0.50067018     0.08440
H8          H  0.45427143  0.57319335  0.50822316     0.05970
H9          H  0.00046498  0.69940641  0.98911285     0.05820
C10         C  0.02530414  0.43303640  0.00244787     0.02850
C11         C  0.02550188  0.48254041  0.00511858    -0.13300
C12         C  0.49988484  0.50915086  0.00323602     0.00350
C13         C  0.47401762  0.48339111  0.00157808    -0.11820
C14         C  0.47390153  0.43391001  0.00000240     0.02840
C15         C  0.49957547  0.41002830  0.99790468    -0.11240
H16         H  0.04576163  0.49905869  0.00908443     0.08440
H17         H  0.45373079  0.50056462  0.00151938     0.05970
H18         H  0.49948377  0.37205316  0.99430212     0.05820
Zr19       Zr  0.32220362  0.78726765  0.01392951     2.17510
O20         O  0.27910596  0.74189527  0.00506392    -0.51610
O21         O  0.29794748  0.86064306  0.02274672    -0.74810
O22         O  0.29780661  0.77375195  0.07045836    -0.81600
O23         O  0.32751342  0.80094998  0.40881536    -0.83340
O24         O  0.32762432  0.76884049  0.11883507    -0.78970
O25         O  0.29762328  0.79240678  0.45679838    -0.90600
O26         O  0.32663300  0.92392027  0.02862856    -0.76560
O27         O  0.34707376  0.83219804  0.05808820    -0.86060
O28         O  0.34722017  0.84383017  0.47879281    -0.85740
O29         O  0.34863582  0.72953091  0.04718033    -0.72500
O30         O  0.34888249  0.74089096  0.47187190    -0.84640
Zr31       Zr  0.42837734  0.78661136  0.01403180     2.26420
Zr32       Zr  0.37520985  0.77542961  0.09083470     2.06270
Zr33       Zr  0.37522122  0.79807469  0.43709139     2.10050
Zr34       Zr  0.37316735  0.88810631  0.02281223     1.78760
O35         O  0.37550680  0.73954195  0.38829087    -0.93440
O36         O  0.37534010  0.93495991  0.07866688    -0.41250
O37         O  0.40159244  0.84363727  0.48082078    -0.77880
O38         O  0.40162364  0.83267866  0.05629129    -0.96570
O39         O  0.40337363  0.73023604  0.04919355    -0.89870
O40         O  0.40320209  0.74175903  0.47000582    -0.92710
C41         C  0.30208542  0.90487480  0.02752931     1.01040
C42         C  0.30243158  0.79813932  0.42261992     1.13970
C43         C  0.30258450  0.76869057  0.10471053     1.04750
O44         O  0.37535343  0.83182788  0.14113495    -0.94870
O45         O  0.42316951  0.77218195  0.11859153    -0.90610
O46         O  0.45325660  0.77673397  0.07041421    -0.83760
C47         C  0.44831026  0.77270438  0.10469746     1.11390
O48         O  0.33439010  0.63834029  0.00201622    -0.96840
Zr49       Zr  0.37744605  0.68561201  0.00538259     1.88940
O50         O  0.45370168  0.71338143  0.00697478    -0.73490
O51         O  0.37634504  0.70634454  0.13063771    -0.52750
O52         O  0.37964240  0.62712592  0.05432215    -0.97430
O53         O  0.37687769  0.63628020  0.45071151    -0.54650
O54         O  0.42439206  0.65047312  0.00161263    -0.74010
C55         C  0.44912080  0.66900176  0.00281732     0.98330
O56         O  0.46641266  0.84413960  0.02014330    -0.62830
O57         O  0.37581017  0.86564170  0.39573153    -0.57630
O58         O  0.45338328  0.79854316  0.45796365    -0.94320
O59         O  0.42314546  0.80568998  0.41000445    -0.92740
O60         O  0.37005190  0.94809723  0.47511078    -0.93100
O61         O  0.41511989  0.93814421  0.02267836    -0.91880
C62         C  0.44831211  0.80471309  0.42386273     1.17180
H63         H  0.33452584  0.86442424  0.46553216     0.33120
H64         H  0.41413394  0.84974216  0.07249076     0.43970
H65         H  0.41585793  0.72577138  0.45337835     0.37500
H66         H  0.33611054  0.70791210  0.05967294     0.33980
H67         H  0.37020190  0.96737520  0.07086214     0.25770
H68         H  0.37074691  0.71840874  0.15501859     0.31700
H69         H  0.38645409  0.59788167  0.04235147     0.37610
H70         H  0.36581998  0.97781310  0.48831825     0.32070
H71         H  0.37036325  0.85253639  0.37160230     0.30950
H72         H  0.37767563  0.75824461  0.36553658     0.32630
H73         H  0.38438908  0.60533741  0.45887269     0.31600
H74         H  0.42679575  0.92673527  0.04338879     0.35600
H75         H  0.46173727  0.86952370  0.50246111     0.28330
H76         H  0.26419638  0.76286350  0.01489312     0.32560
H77         H  0.34061168  0.60499359  0.00365282     0.35410
H78         H  0.35942532  0.88513463  0.40322356     0.28030
H79         H  0.46367140  0.85909179  0.04437555     0.40900
H80         H  0.35824396  0.85134114  0.13714791     0.30950
H81         H  0.35900655  0.92413780  0.09338998     0.38570
H82         H  0.39187243  0.64943412  0.43478931     0.30420
H83         H  0.36017056  0.68668299  0.12261344     0.30480
H84         H  0.28019560  0.71506512  0.02243938     0.30750
C85         C  0.25008019  0.79336755  0.34220544     0.02850
C86         C  0.22418213  0.79508181  0.36152556    -0.13300
C87         C  0.22412801  0.80145343  0.39960914     0.00350
C88         C  0.25030920  0.80687910  0.41746172    -0.11820
C89         C  0.27635988  0.80131851  0.39943870     0.02840
C90         C  0.27609617  0.79560560  0.36132104    -0.11240
H91         H  0.20435921  0.79111059  0.34695132     0.08440
H92         H  0.25044036  0.81369788  0.44661871     0.05970
H93         H  0.29584288  0.79173756  0.34661026     0.05820
Zr94       Zr  0.07220607  0.78463770  0.01373603     2.17510
O95         O  0.02917189  0.83010184  0.02276428    -0.51610
O96         O  0.04775372  0.71138163  0.00475578    -0.74810
O97         O  0.04771585  0.79867784  0.45735284    -0.81600
O98         O  0.07762479  0.77120276  0.11874137    -0.83340
O99         O  0.07745412  0.80357879  0.40898643    -0.78970
O100        O  0.04765582  0.77966764  0.07073901    -0.90600
O101        O  0.07651354  0.64814305  0.99906071    -0.76560
O102        O  0.09697389  0.73967409  0.46957990    -0.86060
O103        O  0.09723436  0.72805543  0.04891436    -0.85740
O104        O  0.09862631  0.84238761  0.48056537    -0.72500
O105        O  0.09896483  0.83092284  0.05586031    -0.84640
Zr106      Zr  0.17840217  0.78516674  0.01374637     2.26420
Zr107      Zr  0.12509962  0.79646584  0.43691434     2.06270
Zr108      Zr  0.12533756  0.77372647  0.09064473     2.10050
Zr109      Zr  0.12309479  0.68377296  0.00491260     1.78760
O110        O  0.12581579  0.83223798  0.13945888    -0.93440
O111        O  0.12530625  0.63686272  0.44909746    -0.41250
O112        O  0.15162474  0.72816003  0.04691580    -0.77880
O113        O  0.15152933  0.73917379  0.47147684    -0.96570
O114        O  0.15335033  0.84159459  0.47860397    -0.89870
O115        O  0.15330402  0.83002113  0.05776964    -0.92710
C116        C  0.05195106  0.66713930  0.00005643     1.01040
C117        C  0.05253024  0.77402615  0.10490657     1.13970
C118        C  0.05244108  0.80386624  0.42312873     1.04750
O119        O  0.12493431  0.74007998  0.38660499    -0.94870
O120        O  0.17299355  0.79929783  0.40909317    -0.90610
O121        O  0.20317556  0.79463617  0.45725599    -0.83760
C122        C  0.19816354  0.79861775  0.42295986     1.11390
O123        O  0.08439350  0.93336327  0.02588198    -0.96840
Zr124      Zr  0.12749034  0.88622701  0.02242847     1.88940
O125        O  0.20358294  0.85858462  0.02071589    -0.73490
O126        O  0.12641186  0.86552406  0.39709782    -0.52750
O127        O  0.12956809  0.94477679  0.47353447    -0.97430
O128        O  0.12698744  0.93544394  0.07716244    -0.54650
O129        O  0.17437574  0.92153756  0.02635109    -0.74010
C130        C  0.19908031  0.90296808  0.02501701     0.98330
O131        O  0.21648340  0.72771626  0.00778644    -0.62830
O132        O  0.12571735  0.70614680  0.13200041    -0.57630
O133        O  0.20341827  0.77313527  0.06994600    -0.94320
O134        O  0.17325743  0.76585849  0.11788341    -0.92740
O135        O  0.11983196  0.62376286  0.05257671    -0.93100
O136        O  0.16498340  0.63359635  0.00525993    -0.91880
C137        C  0.19840990  0.76687356  0.10405293     1.17180
H138        H  0.08453399  0.70748428  0.06215219     0.33080
H139        H  0.16399917  0.72207171  0.45528556     0.43970
H140        H  0.16598870  0.84597787  0.07441510     0.37500
H141        H  0.08611225  0.86406418  0.46808113     0.33980
H142        H  0.12006661  0.60448973  0.45688107     0.25770
H143        H  0.12069593  0.85351701  0.37272950     0.31700
H144        H  0.13630099  0.97405402  0.48555138     0.37610
H145        H  0.11554743  0.59407743  0.03934348     0.32070
H146        H  0.12025315  0.71927722  0.15609945     0.30950
H147        H  0.12758615  0.81347298  0.16224565     0.32630
H148        H  0.13440609  0.96645167  0.06902569     0.31600
H149        H  0.17678148  0.64518399  0.48476629     0.35600
H150        H  0.21187030  0.70239268  0.02553644     0.28330
H151        H  0.01420893  0.80929137  0.01282583     0.32560
H152        H  0.09057643  0.96672955  0.02425164     0.35410
H153        H  0.10930619  0.68674483  0.12441397     0.28030
H154        H  0.21370712  0.71263432  0.48359985     0.40900
H155        H  0.10774877  0.72076468  0.39057949     0.30950
H156        H  0.10903834  0.64778384  0.43425155     0.38570
H157        H  0.14205813  0.92235017  0.09303592     0.30420
H158        H  0.11033978  0.88536770  0.40514973     0.30480
H159        H  0.03027967  0.85708412  0.00553560     0.30750
C160        C  0.99994949  0.80401273  0.34281859     0.02850
C161        C  0.47411991  0.80514318  0.36236570    -0.13300
C162        C  0.47417345  0.80965968  0.40057394     0.00350
C163        C  0.00036686  0.81443832  0.41843513    -0.11820
C164        C  0.02636055  0.80924272  0.40020861     0.02840
C165        C  0.02599290  0.80492379  0.36199532    -0.11240
H166        H  0.45424459  0.80099330  0.34794635     0.08440
H167        H  0.00049855  0.81988957  0.44772530     0.05970
H168        H  0.04574091  0.80145959  0.34723232     0.05820
C169        C  0.25023783  0.76806201  0.18505609     0.02850
C170        C  0.27623472  0.76796565  0.16591160    -0.13300
C171        C  0.27655103  0.76341984  0.12768705     0.00350
C172        C  0.25053424  0.75786999  0.10947788    -0.11820
C173        C  0.22433504  0.76201295  0.12737545     0.02840
C174        C  0.22434939  0.76600836  0.16564882    -0.11240
H175        H  0.29593552  0.77213860  0.18073018     0.08440
H176        H  0.25063448  0.75254682  0.08017471     0.05970
H177        H  0.20450772  0.76912644  0.18025165     0.05820
C178        C  0.00040690  0.77848367  0.18537954     0.02850
C179        C  0.47445756  0.77605585  0.16607154    -0.13300
C180        C  0.47432915  0.76981150  0.12799411     0.00350
C181        C  0.00047370  0.76464382  0.11010451    -0.11820
C182        C  0.02652236  0.77083013  0.12805205     0.02840
C183        C  0.02634257  0.77713324  0.16607539    -0.11240
H184        H  0.45461384  0.77944199  0.18062729     0.08440
H185        H  0.00056456  0.75763804  0.08097193     0.05970
H186        H  0.04613117  0.78203545  0.18055491     0.05820
Zr187      Zr  0.42776022  0.28722872  0.01704833     2.17510
O188        O  0.47077207  0.24162064  0.02602532    -0.51610
O189        O  0.45209204  0.36054843  0.00810434    -0.74810
O190        O  0.45218097  0.27379744  0.46064440    -0.81600
O191        O  0.42250876  0.30067671  0.12198323    -0.83340
O192        O  0.42243496  0.26890024  0.41221253    -0.78970
O193        O  0.45244041  0.29244338  0.07401385    -0.90600
O194        O  0.42339248  0.42381061  0.00211353    -0.76560
O195        O  0.40290966  0.33212170  0.47278867    -0.86060
O196        O  0.40277238  0.34381126  0.05208498    -0.85740
O197        O  0.40135909  0.22942936  0.48392337    -0.72500
O198        O  0.40111110  0.24086140  0.05921203    -0.84640
Zr199      Zr  0.32164221  0.28653754  0.01702072     2.26420
Zr200      Zr  0.37479357  0.27528968  0.44017441     2.06270
Zr201      Zr  0.37478384  0.29806250  0.09386453     2.10050
Zr202      Zr  0.37683404  0.38804749  0.00797486     1.78760
O203        O  0.37449653  0.23979898  0.14295819    -0.93440
O204        O  0.37464569  0.43493308  0.45206308    -0.41250
O205        O  0.34840822  0.34362581  0.05008067    -0.77880
O206        O  0.34838029  0.33255772  0.47462489    -0.96570
O207        O  0.34664080  0.23015368  0.48194797    -0.89870
O208        O  0.34681263  0.24169840  0.06111176    -0.92710
C209        C  0.44794536  0.40478152  0.00326000     1.01040
C210        C  0.44758880  0.29799089  0.10817522     1.13970
C211        C  0.44745959  0.26878204  0.42640057     1.04750
O212        O  0.37448592  0.33163967  0.38975210    -0.94870
O213        O  0.32679320  0.27172289  0.41254211    -0.90610
O214        O  0.29674183  0.27633102  0.46074717    -0.83760
C215        C  0.30166430  0.27219259  0.42647944     1.11390
O216        O  0.41562069  0.13828030  0.02923634    -0.96840
Zr217      Zr  0.37256091  0.18554041  0.02583413     1.88940
O218        O  0.29628610  0.21337520  0.02434585    -0.73490
O219        O  0.37377567  0.20620461  0.40047997    -0.52750
O220        O  0.37027560  0.12695570  0.47706840    -0.97430
O221        O  0.37320083  0.13630537  0.08063718    -0.54650
O222        O  0.32560186  0.15046734  0.02976895    -0.74010
C223        C  0.30087343  0.16900278  0.02858813     0.98330
O224        O  0.28364172  0.34409850  0.01070139    -0.62830
O225        O  0.37429183  0.36575539  0.13499208    -0.57630
O226        O  0.29660909  0.29849647  0.07305278    -0.94320
O227        O  0.32688932  0.30558751  0.12096506    -0.92740
O228        O  0.38000765  0.44804175  0.05557096    -0.93100
O229        O  0.33489806  0.43811615  0.00805789    -0.91880
C230        C  0.30171616  0.30463235  0.10713911     1.17180
H231        H  0.41547504  0.36440426  0.06530051     0.33120
H232        H  0.33585854  0.34959243  0.45839453     0.43970
H233        H  0.33416550  0.22572649  0.07778627     0.37500
H234        H  0.41389542  0.20781808  0.47147841     0.33980
H235        H  0.37982056  0.46733143  0.45981779     0.25770
H236        H  0.37938414  0.21828884  0.37608902     0.31700
H237        H  0.36348514  0.09773522  0.48914334     0.37610
H238        H  0.38427076  0.47774388  0.04231224     0.32070
H239        H  0.37963276  0.35267197  0.15918906     0.30950
H240        H  0.37298708  0.25868744  0.16567966     0.32630
H241        H  0.36562204  0.10537856  0.07259408     0.31600
H242        H  0.32320163  0.42668828  0.48739100     0.35600
H243        H  0.28833106  0.36953123  0.02829462     0.28330
H244        H  0.48574958  0.26250487  0.01622503     0.32560
H245        H  0.40939584  0.10493065  0.02770558     0.35410
H246        H  0.39075772  0.38508617  0.12751157     0.28030
H247        H  0.28639099  0.35896048  0.48641335     0.40900
H248        H  0.39155515  0.35126232  0.39367852     0.30950
H249        H  0.39095619  0.42408003  0.43732956     0.38570
H250        H  0.35826878  0.14954841  0.09659125     0.30420
H251        H  0.38996409  0.18659467  0.40856222     0.30480
H252        H  0.46965184  0.21482198  0.00866810     0.30750
C253        C  0.24948161  0.27827547  0.34591577     0.02850
C254        C  0.27545329  0.27538579  0.36516899    -0.13300
C255        C  0.27561976  0.26923023  0.40325556     0.00350
C256        C  0.24949301  0.26425962  0.42122104    -0.11820
C257        C  0.22345412  0.27085027  0.40335143     0.02840
C258        C  0.22359359  0.27743428  0.36535549    -0.11240
H259        H  0.29530515  0.27842300  0.35058348     0.08440
H260        H  0.24941670  0.25717244  0.45035532     0.05970
H261        H  0.20379775  0.28293923  0.35102187     0.05820
Zr262      Zr  0.17784566  0.28478668  0.01766966     2.17510
O263        O  0.22090625  0.33015287  0.00846128    -0.51610
O264        O  0.20229039  0.21148800  0.02679012    -0.74810
O265        O  0.20233927  0.29908608  0.07394459    -0.81600
O266        O  0.17239318  0.27135495  0.41273108    -0.83340
O267        O  0.17262737  0.30406656  0.12232481    -0.78970
O268        O  0.20240179  0.27983477  0.46067966    -0.90600
O269        O  0.17351460  0.14825123  0.03252280    -0.76560
O270        O  0.15307154  0.23987012  0.06193751    -0.86060
O271        O  0.15281616  0.22818453  0.48262463    -0.85740
O272        O  0.15142084  0.34256733  0.05072730    -0.72500
O273        O  0.15109323  0.33109383  0.47548413    -0.84640
Zr274      Zr  0.07170657  0.28532075  0.01770115     2.26420
Zr275      Zr  0.12494976  0.29670268  0.09450027     2.06270
Zr276      Zr  0.12471787  0.27386975  0.44084551     2.10050
Zr277      Zr  0.12695477  0.18393081  0.02671554     1.78760
O278        O  0.12421787  0.33215893  0.39177084    -0.93440
O279        O  0.12476878  0.13699229  0.08259331    -0.41250
O280        O  0.09843311  0.22828185  0.48462074    -0.77880
O281        O  0.09854112  0.23934771  0.06007422    -0.96570
O282        O  0.09671217  0.34181722  0.05273023    -0.89870
O283        O  0.09675984  0.33018687  0.47357796    -0.92710
C284        C  0.19807989  0.16723127  0.03150842     1.01040
C285        C  0.19749269  0.27417212  0.42653286     1.13970
C286        C  0.19763174  0.30438093  0.10814639     1.04750
O287        O  0.12523780  0.24047030  0.14500272    -0.94870
O288        O  0.07696429  0.29935426  0.12217510    -0.90610
O289        O  0.04682931  0.29497064  0.07396044    -0.83760
C290        C  0.05180511  0.29879333  0.10824600     1.11390
O291        O  0.16563937  0.43360813  0.00526469    -0.96840
Zr292      Zr  0.12256276  0.38641511  0.00879999     1.88940
O293        O  0.04645366  0.35863336  0.01051379    -0.73490
O294        O  0.12353409  0.36576850  0.13418709    -0.52750
O295        O  0.12048365  0.44506040  0.05752875    -0.97430
O296        O  0.12305701  0.43551642  0.45392110    -0.54650
O297        O  0.07564360  0.42161883  0.00481073    -0.74010
C298        C  0.05094405  0.40301452  0.00613900     0.98330
O299        O  0.03364089  0.22784278  0.02388028    -0.62830
O300        O  0.12428106  0.20627179  0.39962033    -0.57630
O301        O  0.04654606  0.27321238  0.46174834    -0.94320
O302        O  0.07675578  0.26614893  0.41384695    -0.92740
O303        O  0.13016748  0.12394456  0.47912554    -0.93100
O304        O  0.08505125  0.13378374  0.02646592    -0.91880
C305        C  0.05160432  0.26708180  0.42767241     1.17180
H306        H  0.16551127  0.20761192  0.46941490     0.33120
H307        H  0.08606529  0.22225941  0.07629529     0.43970
H308        H  0.08406703  0.34611812  0.45690276     0.37500
H309        H  0.16393231  0.36426620  0.06315769     0.33980
H310        H  0.13002574  0.10463173  0.07485316     0.25770
H311        H  0.12931432  0.35381067  0.15856407     0.31700
H312        H  0.11371046  0.47429449  0.04543964     0.37610
H313        H  0.13445170  0.09424734  0.49239113     0.32070
H314        H  0.12973665  0.21938783  0.37549139     0.30950
H315        H  0.12144534  0.31342211  0.36916713     0.32630
H316        H  0.11557742  0.46650663  0.46195045     0.31600
H317        H  0.07328592  0.14531219  0.04699858     0.35600
H318        H  0.03824590  0.20247895  0.00620331     0.28330
H319        H  0.23585802  0.30938247  0.01850990     0.32560
H320        H  0.15943385  0.46697232  0.00670722     0.35410
H321        H  0.14068921  0.18685646  0.40722608     0.28030
H322        H  0.03642753  0.21281630  0.04810892     0.40900
H323        H  0.14237481  0.22106787  0.14096968     0.30950
H324        H  0.14103127  0.14793558  0.09742219     0.38570
H325        H  0.10802893  0.42231976  0.43805168     0.30420
H326        H  0.13954918  0.38571052  0.12605496     0.30480
H327        H  0.21980338  0.35723636  0.02555032     0.30750
C328        C  0.00020323  0.27012910  0.34648570     0.02850
C329        C  0.47408276  0.26889950  0.36539891    -0.13300
C330        C  0.47357450  0.26369369  0.40357378     0.00350
C331        C  0.99950789  0.25800753  0.42196649    -0.11820
C332        C  0.02575933  0.26246796  0.40429936     0.02840
C333        C  0.02595346  0.26713682  0.36613897    -0.11240
H334        H  0.45443763  0.27345823  0.35051860     0.08440
H335        H  0.99931197  0.25225212  0.45122976     0.05970
H336        H  0.04595526  0.26939370  0.35182435     0.05820
C337        C  0.25021787  0.30405333  0.18832658     0.02850
C338        C  0.27600318  0.30473836  0.16865482    -0.13300
C339        C  0.27590428  0.30963873  0.13047491     0.00350
C340        C  0.24971406  0.31485051  0.11269633    -0.11820
C341        C  0.22373786  0.30979782  0.13099018     0.02840
C342        C  0.22414648  0.30548740  0.16919961    -0.11240
H343        H  0.29588921  0.29996784  0.18293314     0.08440
H344        H  0.24956232  0.32046046  0.08341443     0.05970
H345        H  0.20438421  0.30236650  0.18397827     0.05820
C346        C  0.99966947  0.29101457  0.18861484     0.02850
C347        C  0.47372876  0.29422200  0.16937712    -0.13300
C348        C  0.47359369  0.30093373  0.13139143     0.00350
C349        C  0.99965862  0.30707624  0.11354926    -0.11820
C350        C  0.02578661  0.30141092  0.13147326     0.02840
C351        C  0.02562247  0.29407553  0.16943063    -0.11240
H352        H  0.45385192  0.29093513  0.18386020     0.08440
H353        H  0.99957762  0.31453508  0.08446939     0.05970
H354        H  0.04544057  0.28957691  0.18393205     0.05820
C355        C  0.22471325  0.93303238  0.02860815     0.02850
C356        C  0.25046524  0.91003289  0.03294010    -0.13300
C357        C  0.27612164  0.93396053  0.03082368     0.00350
C358        C  0.27598252  0.98344641  0.02937232    -0.11820
C359        C  0.25010132  0.00919564  0.02792300     0.02840
C360        C  0.22448394  0.98256713  0.02611571    -0.11240
H361        H  0.25058457  0.87203490  0.03643938     0.08440
H362        H  0.29626722  0.00062338  0.02938745     0.05970
H363        H  0.20419999  0.99909868  0.02238124     0.05820
C364        C  0.27531477  0.13884249  0.03217206     0.02850
C365        C  0.27548609  0.08954051  0.02786011    -0.13300
C366        C  0.24987689  0.06286654  0.02894429     0.00350
C367        C  0.22403380  0.08856129  0.03139873    -0.11820
C368        C  0.22395995  0.13791990  0.03464758     0.02840
C369        C  0.24963777  0.16160797  0.03775085    -0.11240
H370        H  0.29570876  0.07328006  0.02308774     0.08440
H371        H  0.20373394  0.07146143  0.03059331     0.05970
H372        H  0.24957231  0.19936233  0.04261651     0.05820
C373        C  0.99981425  0.28447625  0.22894737    -0.00430
C374        C  0.01562813  0.31595774  0.25046587    -0.12310
C375        C  0.01602211  0.31208875  0.28866598     0.01800
C376        C  0.00047495  0.27583293  0.30609035    -0.00520
C377        C  0.48474752  0.24420891  0.28458151    -0.12250
C378        C  0.48439044  0.24803987  0.24634975     0.01690
H379        H  0.02732019  0.34429029  0.23736484     0.14670
H380        H  0.47300405  0.21596859  0.29772380     0.14670
C381        C  0.46881781  0.21318125  0.22566773     0.36320
C382        C  0.03169540  0.34686609  0.30930506     0.36230
N383        N  0.45628437  0.18529213  0.20911701    -0.44020
N384        N  0.04432688  0.37464888  0.32583686    -0.44020
C385        C  0.24946592  0.28443998  0.30551921    -0.00430
C386        C  0.26620424  0.32017402  0.28991954    -0.12310
C387        C  0.26674010  0.32734324  0.25197210     0.01800
C388        C  0.25036723  0.29817841  0.22876245    -0.00520
C389        C  0.23368861  0.26240882  0.24439108    -0.12250
C390        C  0.23311136  0.25530082  0.28229590     0.01690
H391        H  0.27858114  0.34309636  0.30752630     0.14670
H392        H  0.22135193  0.23937583  0.22682319     0.14670
C393        C  0.21624657  0.21685396  0.29644283     0.36320
C394        C  0.28353753  0.36584376  0.23777837     0.36230
N395        N  0.20263135  0.18615504  0.30775118    -0.44020
N396        N  0.29708153  0.39662480  0.22645569    -0.44020
C397        C  0.99981270  0.79826066  0.30242185    -0.00430
C398        C  0.01526871  0.76095520  0.28692728    -0.12310
C399        C  0.01564876  0.75382388  0.24902368     0.01800
C400        C  0.00040361  0.78454160  0.22573845    -0.00520
C401        C  0.48489148  0.82182592  0.24120478    -0.12250
C402        C  0.48454783  0.82900583  0.27915275     0.01690
H403        H  0.02676224  0.73681176  0.30459733     0.14670
H404        H  0.47336643  0.84588200  0.22349922     0.14670
C405        C  0.46920053  0.86911514  0.29335263     0.36320
C406        C  0.03106554  0.71376185  0.23487214     0.36230
N407        N  0.45688691  0.90125651  0.30470802    -0.44020
N408        N  0.04345311  0.68169521  0.22353021    -0.44020
C409        C  0.25009666  0.77375115  0.22536278    -0.00430
C410        C  0.26132868  0.81522094  0.24058008    -0.12310
C411        C  0.26128308  0.82235595  0.27851648     0.01800
C412        C  0.25001764  0.78742369  0.30192735    -0.00520
C413        C  0.23873316  0.74595524  0.28673461    -0.12250
C414        C  0.23879340  0.73880223  0.24875719     0.01690
H415        H  0.26980530  0.84236762  0.22269362     0.14670
H416        H  0.23025633  0.71884045  0.30464743     0.14670
C417        C  0.22811876  0.69468419  0.23450599     0.36320
C418        C  0.27201260  0.86645006  0.29273641     0.36230
N419        N  0.21968949  0.65923401  0.22308730    -0.44020
N420        N  0.28049672  0.90185569  0.30416396    -0.44020
C421        C  0.02604788  0.63788416  0.49690057     0.02850
C422        C  0.02595911  0.58850905  0.99998315    -0.13300
C423        C  0.50010806  0.56282193  0.00237877     0.00350
C424        C  0.47450163  0.58949829  0.00352414    -0.11820
C425        C  0.47468326  0.63883440  0.49933105     0.02840
C426        C  0.00037687  0.66161909  0.49387381    -0.11240
H427        H  0.04625436  0.57138675  0.00066837     0.08440
H428        H  0.45427464  0.57319510  0.00822310     0.05970
H429        H  0.00046005  0.69940585  0.48910916     0.05820
C430        C  0.02530340  0.43303734  0.50244869     0.02850
C431        C  0.02550044  0.48254145  0.50511931    -0.13300
C432        C  0.49988292  0.50915087  0.50323692     0.00350
C433        C  0.47401613  0.48339005  0.50157910    -0.11820
C434        C  0.47390076  0.43390902  0.50000327     0.02840
C435        C  0.49957498  0.41002828  0.49790560    -0.11240
H436        H  0.04575999  0.49906057  0.50908475     0.08440
H437        H  0.45372906  0.50056274  0.50152048     0.05970
H438        H  0.49948366  0.37205315  0.49430302     0.05820
Zr439      Zr  0.32220099  0.78726805  0.51392969     2.17510
O440        O  0.27910304  0.74189632  0.50506403    -0.51610
O441        O  0.29794523  0.86064312  0.52274704    -0.74810
O442        O  0.29780377  0.77375278  0.57045836    -0.81600
O443        O  0.32751616  0.80094965  0.90881506    -0.83340
O444        O  0.32762151  0.76884049  0.61883500    -0.78970
O445        O  0.29762603  0.79240567  0.95679801    -0.90600
O446        O  0.32663079  0.92392020  0.52862909    -0.76560
O447        O  0.34707130  0.83219824  0.55808838    -0.86060
O448        O  0.34722264  0.84382986  0.97879260    -0.85740
O449        O  0.34863270  0.72953107  0.54718071    -0.72500
O450        O  0.34888565  0.74089061  0.97187208    -0.84640
Zr451      Zr  0.42837431  0.78661018  0.51403184     2.26420
Zr452      Zr  0.37520709  0.77542946  0.59083491     2.06270
Zr453      Zr  0.37522399  0.79807460  0.93709133     2.10050
Zr454      Zr  0.37316514  0.88810623  0.52281243     1.78760
O455        O  0.37550948  0.73954144  0.88829111    -0.93440
O456        O  0.37533855  0.93496018  0.57866686    -0.41250
O457        O  0.40159495  0.84363776  0.98082067    -0.77880
O458        O  0.40162110  0.83267805  0.55629141    -0.96570
O459        O  0.40337026  0.73023521  0.54919352    -0.89870
O460        O  0.40320549  0.74175970  0.97000575    -0.92710
C461        C  0.30208321  0.90487469  0.52752976     1.01040
C462        C  0.30243431  0.79813861  0.92261956     1.13970
C463        C  0.30258169  0.76869098  0.60471047     1.04750
O464        O  0.37535049  0.83182789  0.64113507    -0.94870
O465        O  0.42316669  0.77218190  0.61859197    -0.90610
O466        O  0.45325361  0.77673242  0.57041441    -0.83760
C467        C  0.44830740  0.77270358  0.60469779     1.11390
O468        O  0.33438496  0.63834312  0.50201687    -0.96840
Zr469      Zr  0.37744220  0.68561171  0.50538258     1.88940
O470        O  0.45369745  0.71337947  0.50697442    -0.73490
O471        O  0.37634259  0.70634467  0.63063817    -0.52750
O472        O  0.37963798  0.62712509  0.55432178    -0.97430
O473        O  0.37688344  0.63628063  0.95071140    -0.54650
O474        O  0.42438775  0.65047138  0.50161143    -0.74010
C475        C  0.44911651  0.66899997  0.50281628     0.98330
O476        O  0.46641001  0.84413756  0.52014346    -0.62830
O477        O  0.37581283  0.86564135  0.89573123    -0.57630
O478        O  0.45338620  0.79854499  0.95796385    -0.94320
O479        O  0.42314827  0.80569052  0.91000463    -0.92740
O480        O  0.37005379  0.94809699  0.97511037    -0.93100
O481        O  0.41511807  0.93814323  0.52267835    -0.91880
C482        C  0.44831494  0.80471442  0.92386294     1.17180
H483        H  0.33452825  0.86442374  0.96553189     0.33120
H484        H  0.41413156  0.84974133  0.57249081     0.43970
H485        H  0.41586150  0.72577229  0.95337835     0.37500
H486        H  0.33610729  0.70791252  0.55967338     0.33980
H487        H  0.37020046  0.96737550  0.57086205     0.25770
H488        H  0.37074460  0.71840903  0.65501906     0.31700
H489        H  0.38644864  0.59788044  0.54235071     0.37610
H490        H  0.36582173  0.97781288  0.98831773     0.32070
H491        H  0.37036571  0.85253594  0.87160210     0.30950
H492        H  0.37767696  0.75824407  0.86553660     0.32630
H493        H  0.38439521  0.60533817  0.95887275     0.31600
H494        H  0.42679393  0.92673401  0.54338868     0.35600
H495        H  0.46173960  0.86952580  0.00246113     0.28330
H496        H  0.26419344  0.76286468  0.51489306     0.32560
H497        H  0.34060564  0.60499597  0.50365371     0.35410
H498        H  0.35942809  0.88513445  0.90322339     0.28030
H499        H  0.46366873  0.85909001  0.54437561     0.40900
H500        H  0.35824119  0.85134145  0.63714770     0.30950
H501        H  0.35900505  0.92413842  0.59339021     0.38570
H502        H  0.39187824  0.64943527  0.93478966     0.30420
H503        H  0.36016806  0.68668306  0.62261415     0.30480
H504        H  0.28019250  0.71506617  0.52243950     0.30750
C505        C  0.25008220  0.79336730  0.84220555     0.02850
C506        C  0.22418437  0.79508270  0.86152600    -0.13300
C507        C  0.22413062  0.80145485  0.89960948     0.00350
C508        C  0.25031200  0.80687989  0.91746171    -0.11820
C509        C  0.27636250  0.80131820  0.89943842     0.02840
C510        C  0.27609842  0.79560483  0.86132074    -0.11240
H511        H  0.20436129  0.79111195  0.84695206     0.08440
H512        H  0.25044341  0.81369898  0.94661866     0.05970
H513        H  0.29584495  0.79173607  0.84660969     0.05820
Zr514      Zr  0.07220313  0.78463827  0.51373598     2.17510
O515        O  0.02917256  0.83011199  0.52276362    -0.51610
O516        O  0.04774857  0.71138376  0.50475596    -0.74810
O517        O  0.04771887  0.79867897  0.95735278    -0.81600
O518        O  0.07762194  0.77120153  0.61874076    -0.83340
O519        O  0.07745692  0.80357918  0.90898618    -0.78970
O520        O  0.04765269  0.77966663  0.57073862    -0.90600
O521        O  0.07650875  0.64814556  0.49905963    -0.76560
O522        O  0.09697732  0.73967382  0.96958020    -0.86060
O523        O  0.09723090  0.72805529  0.54891419    -0.85740
O524        O  0.09862856  0.84238814  0.98056555    -0.72500
O525        O  0.09896257  0.83092221  0.55586026    -0.84640
Zr526      Zr  0.17839964  0.78516478  0.51374615     2.26420
Zr527      Zr  0.12510224  0.79646675  0.93691455     2.06270
Zr528      Zr  0.12533486  0.77372513  0.59064444     2.10050
Zr529      Zr  0.12309063  0.68377245  0.50491218     1.78760
O530        O  0.12581252  0.83223629  0.63945883    -0.93440
O531        O  0.12531201  0.63686301  0.94909812    -0.41250
O532        O  0.15162155  0.72815832  0.54691518    -0.77880
O533        O  0.15153248  0.73917528  0.97147690    -0.96570
O534        O  0.15335259  0.84159617  0.97860413    -0.89870
O535        O  0.15330170  0.83001940  0.55776941    -0.92710
C536        C  0.05194623  0.66714151  0.50005588     1.01040
C537        C  0.05252732  0.77402494  0.60490611     1.13970
C538        C  0.05244394  0.80386706  0.92312857     1.04750
O539        O  0.12493689  0.74008102  0.88660512    -0.94870
O540        O  0.17299624  0.79929894  0.90909364    -0.90610
O541        O  0.20317831  0.79463929  0.95725652    -0.83760
C542        C  0.19816624  0.79861983  0.92296035     1.11390
O543        O  0.08439189  0.93336302  0.52588217    -0.96840
Zr544      Zr  0.12748833  0.88622583  0.52242832     1.88940
O545        O  0.20358059  0.85858331  0.52071529    -0.73490
O546        O  0.12641448  0.86552483  0.89709788    -0.52750
O547        O  0.12957011  0.94477838  0.97353490    -0.97430
O548        O  0.12698609  0.93544214  0.57716264    -0.54650
O549        O  0.17437358  0.92153655  0.52635040    -0.74010
C550        C  0.19907809  0.90296698  0.52501625     0.98330
O551        O  0.21648065  0.72771375  0.50778656    -0.62830
O552        O  0.12571496  0.70614489  0.63199955    -0.57630
O553        O  0.20341548  0.77313321  0.56994604    -0.94320
O554        O  0.17325465  0.76585754  0.61788354    -0.92740
O555        O  0.11982516  0.62376310  0.55257656    -0.93100
O556        O  0.16497701  0.63359076  0.50525901    -0.91880
C557        C  0.19840713  0.76687221  0.60405307     1.17180
H558        H  0.08453038  0.70748436  0.56215195     0.33080
H559        H  0.16400252  0.72207367  0.95528558     0.43970
H560        H  0.16598646  0.84597596  0.57441486     0.37500
H561        H  0.08611432  0.86406447  0.96808134     0.33980
H562        H  0.12007366  0.60448952  0.95688194     0.25770
H563        H  0.12069848  0.85351773  0.87272960     0.31700
H564        H  0.13630283  0.97405559  0.98555202     0.37610
H565        H  0.11553806  0.59407846  0.53934365     0.32070
H566        H  0.12025101  0.71927504  0.65609878     0.30950
H567        H  0.12758518  0.81347136  0.66224534     0.32630
H568        H  0.13440474  0.96644992  0.56902599     0.31600
H569        H  0.17678579  0.64518665  0.98476420     0.35600
H570        H  0.21186743  0.70239044  0.52553674     0.28330
H571        H  0.01420815  0.80930364  0.51282631     0.32560
H572        H  0.09057512  0.96672916  0.52425212     0.35410
H573        H  0.10930368  0.68674312  0.62441323     0.28030
H574        H  0.21371002  0.71263711  0.98359960     0.40900
H575        H  0.10775193  0.72076455  0.89058040     0.30950
H576        H  0.10904362  0.64778225  0.93425226     0.38570
H577        H  0.14205690  0.92234810  0.59303580     0.30420
H578        H  0.11034245  0.88536854  0.90514982     0.30480
H579        H  0.03028208  0.85709258  0.50553352     0.30750
C580        C  0.99995182  0.80401399  0.84281861     0.02850
C581        C  0.47412244  0.80514451  0.86236601    -0.13300
C582        C  0.47417621  0.80966105  0.90057416     0.00350
C583        C  0.00036971  0.81443951  0.91843517    -0.11820
C584        C  0.02636331  0.80924367  0.90020847     0.02840
C585        C  0.02599540  0.80492471  0.86199510    -0.11240
H586        H  0.45424701  0.80099461  0.84794692     0.08440
H587        H  0.00050154  0.81989076  0.94772533     0.05970
H588        H  0.04574330  0.80146027  0.84723186     0.05820
C589        C  0.25023539  0.76806237  0.68505612     0.02850
C590        C  0.27623215  0.76796620  0.66591143    -0.13300
C591        C  0.27654831  0.76342006  0.62768698     0.00350
C592        C  0.25053153  0.75786957  0.60947797    -0.11820
C593        C  0.22433234  0.76201220  0.62737565     0.02840
C594        C  0.22434683  0.76600803  0.66564907    -0.11240
H595        H  0.29593301  0.77213957  0.68072981     0.08440
H596        H  0.25063178  0.75254611  0.58017483     0.05970
H597        H  0.20450522  0.76912586  0.68025206     0.05820
C598        C  0.00040471  0.77848274  0.68537960     0.02850
C599        C  0.47445514  0.77605520  0.66607193    -0.13300
C600        C  0.47432640  0.76981068  0.62799441     0.00350
C601        C  0.00047083  0.76464264  0.61010456    -0.11820
C602        C  0.02651960  0.77082887  0.62805178     0.02840
C603        C  0.02634015  0.77713218  0.66607503    -0.11240
H604        H  0.45461157  0.77944163  0.68062795     0.08440
H605        H  0.00056152  0.75763673  0.58097199     0.05970
H606        H  0.04612890  0.78203447  0.68055420     0.05820
Zr607      Zr  0.42775977  0.28722705  0.51704839     2.17510
O608        O  0.47077122  0.24161796  0.52602529    -0.51610
O609        O  0.45209182  0.36054675  0.50810468    -0.74810
O610        O  0.45218136  0.27379855  0.96064437    -0.81600
O611        O  0.42250838  0.30067557  0.62198321    -0.83340
O612        O  0.42243531  0.26890128  0.91221254    -0.78970
O613        O  0.45244005  0.29244222  0.57401385    -0.90600
O614        O  0.42339195  0.42380861  0.50211388    -0.76560
O615        O  0.40291008  0.33212328  0.97278860    -0.86060
O616        O  0.40277193  0.34380964  0.55208498    -0.85740
O617        O  0.40135963  0.22943095  0.98392332    -0.72500
O618        O  0.40111055  0.24085976  0.55921202    -0.84640
Zr619      Zr  0.32164175  0.28653607  0.51702074     2.26420
Zr620      Zr  0.37479398  0.27529115  0.94017442     2.06270
Zr621      Zr  0.37478343  0.29806099  0.59386456     2.10050
Zr622      Zr  0.37683355  0.38804582  0.50797491     1.78760
O623        O  0.37449613  0.23979790  0.64295852    -0.93440
O624        O  0.37464605  0.43493467  0.95206300    -0.41250
O625        O  0.34840776  0.34362425  0.55008074    -0.77880
O626        O  0.34838074  0.33255927  0.97462490    -0.96570
O627        O  0.34664130  0.23015513  0.98194803    -0.89870
O628        O  0.34681211  0.24169692  0.56111183    -0.92710
C629        C  0.44794490  0.40477982  0.50326049     1.01040
C630        C  0.44758843  0.29798990  0.60817520     1.13970
C631        C  0.44745994  0.26878294  0.92640056     1.04750
O632        O  0.37448630  0.33164089  0.88975194    -0.94870
O633        O  0.32679360  0.27172395  0.91254213    -0.90610
O634        O  0.29674223  0.27633216  0.96074719    -0.83760
C635        C  0.30166470  0.27219355  0.92647946     1.11390
O636        O  0.41562007  0.13827886  0.52923641    -0.96840
Zr637      Zr  0.37256023  0.18553882  0.52583413     1.88940
O638        O  0.29628540  0.21337396  0.52434571    -0.73490
O639        O  0.37377596  0.20620587  0.90048020    -0.52750
O640        O  0.37027620  0.12695745  0.97706828    -0.97430
O641        O  0.37320011  0.13630378  0.58063718    -0.54650
O642        O  0.32560099  0.15046588  0.52976876    -0.74010
C643        C  0.30087258  0.16900149  0.52858792     0.98330
O644        O  0.28364147  0.34409741  0.51070142    -0.62830
O645        O  0.37429152  0.36575426  0.63499175    -0.57630
O646        O  0.29660870  0.29849532  0.57305281    -0.94320
O647        O  0.32688897  0.30558656  0.62096504    -0.92740
O648        O  0.38000734  0.44804021  0.55557089    -0.93100
O649        O  0.33489766  0.43811470  0.50805804    -0.91880
C650        C  0.30171581  0.30463146  0.60713910     1.17180
H651        H  0.41547458  0.36440267  0.56530049     0.33120
H652        H  0.33585898  0.34959393  0.95839453     0.43970
H653        H  0.33416495  0.22572507  0.57778634     0.37500
H654        H  0.41389597  0.20781966  0.97147837     0.33980
H655        H  0.37982095  0.46733303  0.95981766     0.25770
H656        H  0.37938447  0.21828993  0.87608921     0.31700
H657        H  0.36348568  0.09773697  0.98914316     0.37610
H658        H  0.38427065  0.47774223  0.54231213     0.32070
H659        H  0.37963256  0.35267108  0.65918877     0.30950
H660        H  0.37298698  0.25868660  0.66567991     0.32630
H661        H  0.36562125  0.10537701  0.57259408     0.31600
H662        H  0.32320197  0.42668944  0.98739100     0.35600
H663        H  0.28833092  0.36953011  0.52829463     0.28330
H664        H  0.48574884  0.26250209  0.51622520     0.32560
H665        H  0.40939526  0.10492918  0.52770575     0.35410
H666        H  0.39075736  0.38508503  0.62751103     0.28030
H667        H  0.28639121  0.35896163  0.98641333     0.40900
H668        H  0.39155550  0.35126362  0.89367834     0.30950
H669        H  0.39095651  0.42408159  0.93732941     0.38570
H670        H  0.35826809  0.14954690  0.59659126     0.30420
H671        H  0.38996432  0.18659587  0.90856253     0.30480
H672        H  0.46965085  0.21481960  0.50866780     0.30750
C673        C  0.24948192  0.27827537  0.84591578     0.02850
C674        C  0.27545363  0.27538611  0.86516899    -0.13300
C675        C  0.27562016  0.26923074  0.90325560     0.00350
C676        C  0.24949344  0.26425981  0.92122109    -0.11820
C677        C  0.22345451  0.27084999  0.90335148     0.02840
C678        C  0.22359392  0.27743392  0.86535554    -0.11240
H679        H  0.29530547  0.27842354  0.85058346     0.08440
H680        H  0.24941718  0.25717273  0.95035539     0.05970
H681        H  0.20379804  0.28293863  0.85102195     0.05820
Zr682      Zr  0.17784528  0.28478736  0.51766968     2.17510
O683        O  0.22090605  0.33015307  0.50846130    -0.51610
O684        O  0.20228971  0.21148828  0.52679029    -0.74810
O685        O  0.20233893  0.29908658  0.57394463    -0.81600
O686        O  0.17239356  0.27135405  0.91273110    -0.83340
O687        O  0.17262706  0.30406710  0.62232488    -0.78970
O688        O  0.20240215  0.27983432  0.96067966    -0.90600
O689        O  0.17351369  0.14825179  0.53252285    -0.76560
O690        O  0.15307106  0.23987086  0.56193746    -0.86060
O691        O  0.15281665  0.22818363  0.98262464    -0.85740
O692        O  0.15142051  0.34256817  0.55072732    -0.72500
O693        O  0.15109358  0.33109277  0.97548394    -0.84640
Zr694      Zr  0.07170626  0.28532205  0.51770117     2.26420
Zr695      Zr  0.12494943  0.29670354  0.59450031     2.06270
Zr696      Zr  0.12471823  0.27386854  0.94084547     2.10050
Zr697      Zr  0.12695411  0.18393182  0.52671545     1.78760
O698        O  0.12421819  0.33215788  0.89177091    -0.93440
O699        O  0.12476800  0.13699329  0.58259321    -0.41250
O700        O  0.09843358  0.22828058  0.98462082    -0.77880
O701        O  0.09854066  0.23934882  0.56007423    -0.96570
O702        O  0.09671188  0.34181834  0.55273038    -0.89870
O703        O  0.09676017  0.33018556  0.97357793    -0.92710
C704        C  0.19807903  0.16723157  0.53150857     1.01040
C705        C  0.19749306  0.27417155  0.92653288     1.13970
C706        C  0.19763143  0.30438136  0.60814645     1.04750
O707        O  0.12523749  0.24047085  0.64500257    -0.94870
O708        O  0.07696393  0.29935491  0.62217511    -0.90610
O709        O  0.04682896  0.29497165  0.57396041    -0.83760
C710        C  0.05180476  0.29879405  0.60824599     1.11390
O711        O  0.16563912  0.43360909  0.50526472    -0.96840
Zr712      Zr  0.12256241  0.38641633  0.50880016     1.88940
O713        O  0.04645351  0.35863479  0.51051428    -0.73490
O714        O  0.12353389  0.36576908  0.63418743    -0.52750
O715        O  0.12048379  0.44506153  0.55752902    -0.97430
O716        O  0.12305741  0.43551536  0.95392102    -0.54650
O717        O  0.07564318  0.42162057  0.50481132    -0.74010
C718        C  0.05094366  0.40301602  0.50613965     0.98330
O719        O  0.03364064  0.22784398  0.52388014    -0.62830
O720        O  0.12428141  0.20627066  0.89962022    -0.57630
O721        O  0.04654642  0.27321095  0.96174829    -0.94320
O722        O  0.07675611  0.26614807  0.91384683    -0.92740
O723        O  0.13016819  0.12394338  0.97912577    -0.93100
O724        O  0.08505051  0.13378493  0.52646573    -0.91880
C725        C  0.05160465  0.26708078  0.92767231     1.17180
H726        H  0.16551181  0.20761109  0.96941492     0.33120
H727        H  0.08606479  0.22226055  0.57629526     0.43970
H728        H  0.08406737  0.34611678  0.95690269     0.37500
H729        H  0.16393203  0.36426693  0.56315773     0.33980
H730        H  0.13002487  0.10463268  0.57485304     0.25770
H731        H  0.12931414  0.35381107  0.65856434     0.31700
H732        H  0.11371066  0.47429573  0.54544001     0.37610
H733        H  0.13445243  0.09424622  0.99239142     0.32070
H734        H  0.12973693  0.21938678  0.87549127     0.30950
H735        H  0.12144550  0.31342115  0.86916718     0.32630
H736        H  0.11557769  0.46650547  0.96195037     0.31600
H737        H  0.07328530  0.14531314  0.54699859     0.35600
H738        H  0.03824570  0.20248020  0.50620315     0.28330
H739        H  0.23585770  0.30938248  0.51850996     0.32560
H740        H  0.15943366  0.46697334  0.50670694     0.35410
H741        H  0.14068961  0.18685540  0.90722589     0.28030
H742        H  0.03642726  0.21281744  0.54810877     0.40900
H743        H  0.14237457  0.22106858  0.64096954     0.30950
H744        H  0.14103053  0.14793644  0.59742208     0.38570
H745        H  0.10802945  0.42231859  0.93805148     0.30420
H746        H  0.13954899  0.38571111  0.62605533     0.30480
H747        H  0.21980328  0.35723659  0.52555033     0.30750
C748        C  0.00020347  0.27012899  0.84648566     0.02850
C749        C  0.47408303  0.26889984  0.86539892    -0.13300
C750        C  0.47357479  0.26369408  0.90357377     0.00350
C751        C  0.99950815  0.25800741  0.92196643    -0.11820
C752        C  0.02575962  0.26246740  0.90429926     0.02840
C753        C  0.02595372  0.26713636  0.86613887    -0.11240
H754        H  0.45443791  0.27345888  0.85051864     0.08440
H755        H  0.99931220  0.25225197  0.95122969     0.05970
H756        H  0.04595550  0.26939301  0.85182419     0.05820
C757        C  0.25021764  0.30405335  0.68832660     0.02850
C758        C  0.27600291  0.30473806  0.66865481    -0.13300
C759        C  0.27590398  0.30963830  0.63047490     0.00350
C760        C  0.24971378  0.31485039  0.61269635    -0.11820
C761        C  0.22373758  0.30979800  0.63099023     0.02840
C762        C  0.22414622  0.30548762  0.66919968    -0.11240
H763        H  0.29588894  0.29996735  0.68293309     0.08440
H764        H  0.24956206  0.32046030  0.58341444     0.05970
H765        H  0.20438396  0.30236691  0.68397839     0.05820
C766        C  0.99966919  0.29101461  0.68861483     0.02850
C767        C  0.47372844  0.29422162  0.66937712    -0.13300
C768        C  0.47359332  0.30093321  0.63139141     0.00350
C769        C  0.99965821  0.30707609  0.61354922    -0.11820
C770        C  0.02578624  0.30141125  0.63147323     0.02840
C771        C  0.02562216  0.29407590  0.66943059    -0.11240
H772        H  0.45385163  0.29093453  0.68386022     0.08440
H773        H  0.99957714  0.31453484  0.58446934     0.05970
H774        H  0.04544028  0.28957759  0.68393199     0.05820
C775        C  0.22471102  0.93303161  0.52860736     0.02850
C776        C  0.25046298  0.91003222  0.53293953    -0.13300
C777        C  0.27611938  0.93396006  0.53082396     0.00350
C778        C  0.27598032  0.98344581  0.52937301    -0.11820
C779        C  0.25009924  0.00919504  0.52792303     0.02840
C780        C  0.22448178  0.98256656  0.52611517    -0.11240
H781        H  0.25058228  0.87203418  0.53643850     0.08440
H782        H  0.29626504  0.00062268  0.52938904     0.05970
H783        H  0.20419791  0.99909837  0.52238050     0.05820
C784        C  0.27531371  0.13884150  0.53217185     0.02850
C785        C  0.27548462  0.08953953  0.52785969    -0.13300
C786        C  0.24987521  0.06286596  0.52894427     0.00350
C787        C  0.22403235  0.08856113  0.53139900    -0.11820
C788        C  0.22395888  0.13791977  0.53464773     0.02840
C789        C  0.24963686  0.16160739  0.53775087    -0.11240
H790        H  0.29570714  0.07327882  0.52308676     0.08440
H791        H  0.20373241  0.07146144  0.53059390     0.05970
H792        H  0.24957163  0.19936174  0.54261657     0.05820
C793        C  0.99981406  0.28447630  0.72894737    -0.00430
C794        C  0.01562800  0.31595779  0.75046580    -0.12310
C795        C  0.01602216  0.31208869  0.78866591     0.01800
C796        C  0.00047511  0.27583279  0.80609032    -0.00520
C797        C  0.48474762  0.24420878  0.78458156    -0.12250
C798        C  0.48439038  0.24803982  0.74634980     0.01690
H799        H  0.02731998  0.34429041  0.73736474     0.14670
H800        H  0.47300422  0.21596842  0.79772390     0.14670
C801        C  0.46881773  0.21318115  0.72566785     0.36320
C802        C  0.03169550  0.34686599  0.80930496     0.36230
N803        N  0.45628427  0.18529201  0.70911718    -0.44020
N804        N  0.04432701  0.37464875  0.82583676    -0.44020
C805        C  0.24946612  0.28443984  0.80551921    -0.00430
C806        C  0.26620439  0.32017389  0.78991946    -0.12310
C807        C  0.26674009  0.32734318  0.75197203     0.01800
C808        C  0.25036708  0.29817846  0.72876247    -0.00520
C809        C  0.23368850  0.26240888  0.74439117    -0.12250
C810        C  0.23311143  0.25530077  0.78229598     0.01690
H811        H  0.27858138  0.34309620  0.80752616     0.14670
H812        H  0.22135173  0.23937597  0.72682333     0.14670
C813        C  0.21624669  0.21685389  0.79644295     0.36320
C814        C  0.28353752  0.36584366  0.73777822     0.36230
N815        N  0.20263149  0.18615495  0.80775133    -0.44020
N816        N  0.29708153  0.39662467  0.72645550    -0.44020
C817        C  0.99981432  0.79826187  0.80242185    -0.00430
C818        C  0.01526987  0.76095623  0.78692684    -0.12310
C819        C  0.01564840  0.75382390  0.74902332     0.01800
C820        C  0.00040219  0.78454084  0.72573855    -0.00520
C821        C  0.48489054  0.82182536  0.74120533    -0.12250
C822        C  0.48454840  0.82900627  0.77915322     0.01690
H823        H  0.02676411  0.73681327  0.80459651     0.14670
H824        H  0.47336478  0.84588097  0.72350016     0.14670
C825        C  0.46920144  0.86911573  0.79335348     0.36320
C826        C  0.03106480  0.71376165  0.73487145     0.36230
N827        N  0.45688808  0.90125717  0.80470922    -0.44020
N828        N  0.04345210  0.68169485  0.72352931    -0.44020
C829        C  0.25009478  0.77375174  0.72536280    -0.00430
C830        C  0.26132713  0.81522158  0.74057967    -0.12310
C831        C  0.26128308  0.82235606  0.77851613     0.01800
C832        C  0.25001888  0.78742326  0.80192748    -0.00520
C833        C  0.23873403  0.74595480  0.78673517    -0.12250
C834        C  0.23879276  0.73880227  0.74875769     0.01690
H835        H  0.26980296  0.84236856  0.72269286     0.14670
H836        H  0.23025802  0.71883971  0.80464836     0.14670
C837        C  0.22811802  0.69468411  0.73450685     0.36320
C838        C  0.27201291  0.86645014  0.79273571     0.36230
N839        N  0.21968870  0.65923383  0.72308840    -0.44020
N840        N  0.28049728  0.90185576  0.80416299    -0.44020
C841        C  0.52605217  0.63788303  0.99690148     0.02850
C842        C  0.52595566  0.58851030  0.49998366    -0.13300
C843        C  0.00010509  0.56282196  0.50237915     0.00350
C844        C  0.97449818  0.58949720  0.50352378    -0.11820
C845        C  0.97468744  0.63883563  0.99933262     0.02840
C846        C  0.50038141  0.66161941  0.99387623    -0.11240
H847        H  0.54625119  0.57138901  0.50067022     0.08440
H848        H  0.95427143  0.57319336  0.50822321     0.05970
H849        H  0.50046499  0.69940641  0.98911286     0.05820
C850        C  0.52530414  0.43303640  0.00244786     0.02850
C851        C  0.52550189  0.48254041  0.00511856    -0.13300
C852        C  0.99988483  0.50915087  0.00323603     0.00350
C853        C  0.97401762  0.48339111  0.00157807    -0.11820
C854        C  0.97390153  0.43391002  0.00000239     0.02840
C855        C  0.99957547  0.41002831  0.99790468    -0.11240
H856        H  0.54576164  0.49905868  0.00908439     0.08440
H857        H  0.95373079  0.50056463  0.00151936     0.05970
H858        H  0.99948377  0.37205317  0.99430211     0.05820
Zr859      Zr  0.82220362  0.78726765  0.01392952     2.17510
O860        O  0.77910596  0.74189528  0.00506392    -0.51610
O861        O  0.79794748  0.86064306  0.02274672    -0.74810
O862        O  0.79780661  0.77375194  0.07045837    -0.81600
O863        O  0.82751342  0.80094997  0.40881536    -0.83340
O864        O  0.82762432  0.76884048  0.11883507    -0.78970
O865        O  0.79762329  0.79240677  0.45679838    -0.90600
O866        O  0.82663301  0.92392028  0.02862855    -0.76560
O867        O  0.84707376  0.83219804  0.05808821    -0.86060
O868        O  0.84722017  0.84383018  0.47879280    -0.85740
O869        O  0.84863582  0.72953091  0.04718034    -0.72500
O870        O  0.84888250  0.74089096  0.47187191    -0.84640
Zr871      Zr  0.92837734  0.78661136  0.01403181     2.26420
Zr872      Zr  0.87520985  0.77542961  0.09083470     2.06270
Zr873      Zr  0.87522122  0.79807468  0.43709139     2.10050
Zr874      Zr  0.87316735  0.88810631  0.02281224     1.78760
O875        O  0.87550680  0.73954194  0.38829087    -0.93440
O876        O  0.87534008  0.93495991  0.07866689    -0.41250
O877        O  0.90159244  0.84363727  0.48082078    -0.77880
O878        O  0.90162364  0.83267866  0.05629130    -0.96570
O879        O  0.90337363  0.73023604  0.04919356    -0.89870
O880        O  0.90320209  0.74175903  0.47000583    -0.92710
C881        C  0.80208542  0.90487480  0.02752930     1.01040
C882        C  0.80243159  0.79813932  0.42261992     1.13970
C883        C  0.80258450  0.76869056  0.10471053     1.04750
O884        O  0.87535343  0.83182788  0.14113496    -0.94870
O885        O  0.92316951  0.77218195  0.11859154    -0.90610
O886        O  0.95325660  0.77673397  0.07041421    -0.83760
C887        C  0.94831026  0.77270437  0.10469746     1.11390
O888        O  0.83439010  0.63834028  0.00201625    -0.96840
Zr889      Zr  0.87744605  0.68561201  0.00538260     1.88940
O890        O  0.95370168  0.71338143  0.00697479    -0.73490
O891        O  0.87634504  0.70634454  0.13063771    -0.52750
O892        O  0.87964241  0.62712593  0.05432217    -0.97430
O893        O  0.87687769  0.63628020  0.45071152    -0.54650
O894        O  0.92439206  0.65047312  0.00161264    -0.74010
C895        C  0.94912080  0.66900176  0.00281733     0.98330
O896        O  0.96641265  0.84413961  0.02014331    -0.62830
O897        O  0.87581017  0.86564170  0.39573153    -0.57630
O898        O  0.95338329  0.79854316  0.45796365    -0.94320
O899        O  0.92314546  0.80568997  0.41000445    -0.92740
O900        O  0.87005192  0.94809722  0.47511076    -0.93100
O901        O  0.91511990  0.93814420  0.02267840    -0.91880
C902        C  0.94831211  0.80471309  0.42386273     1.17180
H903        H  0.83452585  0.86442424  0.46553216     0.33120
H904        H  0.91413394  0.84974216  0.07249077     0.43970
H905        H  0.91585793  0.72577137  0.45337836     0.37500
H906        H  0.83611054  0.70791209  0.05967295     0.33980
H907        H  0.87020189  0.96737520  0.07086215     0.25770
H908        H  0.87074691  0.71840874  0.15501860     0.31700
H909        H  0.88645410  0.59788167  0.04235148     0.37610
H910        H  0.86582000  0.97781309  0.48831823     0.32070
H911        H  0.87036326  0.85253638  0.37160229     0.30950
H912        H  0.87767562  0.75824460  0.36553658     0.32630
H913        H  0.88438908  0.60533741  0.45887270     0.31600
H914        H  0.92679574  0.92673527  0.04338884     0.35600
H915        H  0.96173727  0.86952371  0.50246111     0.28330
H916        H  0.76419637  0.76286352  0.01489313     0.32560
H917        H  0.84061169  0.60499358  0.00365284     0.35410
H918        H  0.85942532  0.88513463  0.40322355     0.28030
H919        H  0.96367140  0.85909179  0.04437556     0.40900
H920        H  0.85824395  0.85134114  0.13714792     0.30950
H921        H  0.85900652  0.92413779  0.09338998     0.38570
H922        H  0.89187243  0.64943412  0.43478932     0.30420
H923        H  0.86017056  0.68668299  0.12261345     0.30480
H924        H  0.78019559  0.71506513  0.02243938     0.30750
C925        C  0.75008019  0.79336755  0.34220544     0.02850
C926        C  0.72418213  0.79508181  0.36152556    -0.13300
C927        C  0.72412801  0.80145343  0.39960915     0.00350
C928        C  0.75030921  0.80687910  0.41746172    -0.11820
C929        C  0.77635988  0.80131850  0.39943870     0.02840
C930        C  0.77609617  0.79560560  0.36132104    -0.11240
H931        H  0.70435921  0.79111059  0.34695132     0.08440
H932        H  0.75044036  0.81369787  0.44661872     0.05970
H933        H  0.79584288  0.79173756  0.34661027     0.05820
Zr934      Zr  0.57220608  0.78463770  0.01373603     2.17510
O935        O  0.52917189  0.83010183  0.02276428    -0.51610
O936        O  0.54775372  0.71138163  0.00475579    -0.74810
O937        O  0.54771585  0.79867783  0.45735284    -0.81600
O938        O  0.57762480  0.77120275  0.11874137    -0.83340
O939        O  0.57745412  0.80357878  0.40898644    -0.78970
O940        O  0.54765583  0.77966765  0.07073901    -0.90600
O941        O  0.57651354  0.64814305  0.99906072    -0.76560
O942        O  0.59697389  0.73967409  0.46957990    -0.86060
O943        O  0.59723436  0.72805542  0.04891437    -0.85740
O944        O  0.59862632  0.84238761  0.48056537    -0.72500
O945        O  0.59896483  0.83092284  0.05586031    -0.84640
Zr946      Zr  0.67840218  0.78516674  0.01374638     2.26420
Zr947      Zr  0.62509962  0.79646584  0.43691434     2.06270
Zr948      Zr  0.62533756  0.77372647  0.09064473     2.10050
Zr949      Zr  0.62309479  0.68377295  0.00491261     1.78760
O950        O  0.62581580  0.83223798  0.13945888    -0.93440
O951        O  0.62530624  0.63686271  0.44909747    -0.41250
O952        O  0.65162474  0.72816003  0.04691581    -0.77880
O953        O  0.65152933  0.73917379  0.47147684    -0.96570
O954        O  0.65335033  0.84159459  0.47860397    -0.89870
O955        O  0.65330403  0.83002112  0.05776965    -0.92710
C956        C  0.55195107  0.66713929  0.00005643     1.01040
C957        C  0.55253024  0.77402615  0.10490657     1.13970
C958        C  0.55244108  0.80386624  0.42312873     1.04750
O959        O  0.62493431  0.74007998  0.38660500    -0.94870
O960        O  0.67299355  0.79929783  0.40909317    -0.90610
O961        O  0.70317557  0.79463617  0.45725599    -0.83760
C962        C  0.69816354  0.79861775  0.42295986     1.11390
O963        O  0.58439350  0.93336326  0.02588201    -0.96840
Zr964      Zr  0.62749034  0.88622700  0.02242847     1.88940
O965        O  0.70358295  0.85858461  0.02071589    -0.73490
O966        O  0.62641186  0.86552406  0.39709782    -0.52750
O967        O  0.62956807  0.94477679  0.47353447    -0.97430
O968        O  0.62698745  0.93544393  0.07716245    -0.54650
O969        O  0.67437574  0.92153756  0.02635108    -0.74010
C970        C  0.69908031  0.90296807  0.02501701     0.98330
O971        O  0.71648340  0.72771626  0.00778645    -0.62830
O972        O  0.62571735  0.70614680  0.13200041    -0.57630
O973        O  0.70341827  0.77313526  0.06994600    -0.94320
O974        O  0.67325743  0.76585848  0.11788341    -0.92740
O975        O  0.61983197  0.62376285  0.05257671    -0.93100
O976        O  0.66498341  0.63359634  0.00525993    -0.91880
C977        C  0.69840991  0.76687355  0.10405293     1.17180
H978        H  0.58453399  0.70748428  0.06215220     0.33080
H979        H  0.66399917  0.72207171  0.45528556     0.43970
H980        H  0.66598870  0.84597787  0.07441511     0.37500
H981        H  0.58611225  0.86406418  0.46808113     0.33980
H982        H  0.62006660  0.60448973  0.45688108     0.25770
H983        H  0.62069593  0.85351701  0.37272950     0.31700
H984        H  0.63630098  0.97405403  0.48555139     0.37610
H985        H  0.61554743  0.59407743  0.03934349     0.32070
H986        H  0.62025315  0.71927722  0.15609946     0.30950
H987        H  0.62758619  0.81347298  0.16224565     0.32630
H988        H  0.63440610  0.96645166  0.06902570     0.31600
H989        H  0.67678148  0.64518399  0.48476628     0.35600
H990        H  0.71187030  0.70239267  0.02553644     0.28330
H991        H  0.51420893  0.80929136  0.01282583     0.32560
H992        H  0.59057643  0.96672954  0.02425168     0.35410
H993        H  0.60930619  0.68674483  0.12441398     0.28030
H994        H  0.71370712  0.71263432  0.48359986     0.40900
H995        H  0.60774878  0.72076467  0.39057949     0.30950
H996        H  0.60903833  0.64778384  0.43425156     0.38570
H997        H  0.64205815  0.92235017  0.09303592     0.30420
H998        H  0.61033978  0.88536769  0.40514973     0.30480
H999        H  0.53027967  0.85708412  0.00553560     0.30750
C1000       C  0.49994949  0.80401272  0.34281859     0.02850
C1001       C  0.97411991  0.80514318  0.36236569    -0.13300
C1002       C  0.97417345  0.80965969  0.40057394     0.00350
C1003       C  0.50036686  0.81443831  0.41843513    -0.11820
C1004       C  0.52636055  0.80924271  0.40020861     0.02840
C1005       C  0.52599290  0.80492379  0.36199533    -0.11240
H1006       H  0.95424459  0.80099330  0.34794635     0.08440
H1007       H  0.50049855  0.81988956  0.44772530     0.05970
H1008       H  0.54574091  0.80145958  0.34723232     0.05820
C1009       C  0.75023783  0.76806200  0.18505609     0.02850
C1010       C  0.77623472  0.76796564  0.16591160    -0.13300
C1011       C  0.77655103  0.76341983  0.12768705     0.00350
C1012       C  0.75053425  0.75786998  0.10947789    -0.11820
C1013       C  0.72433505  0.76201294  0.12737545     0.02840
C1014       C  0.72434939  0.76600835  0.16564882    -0.11240
H1015       H  0.79593553  0.77213859  0.18073018     0.08440
H1016       H  0.75063448  0.75254680  0.08017472     0.05970
H1017       H  0.70450772  0.76912644  0.18025165     0.05820
C1018       C  0.50040690  0.77848367  0.18537954     0.02850
C1019       C  0.97445756  0.77605584  0.16607155    -0.13300
C1020       C  0.97432914  0.76981150  0.12799412     0.00350
C1021       C  0.50047370  0.76464383  0.11010451    -0.11820
C1022       C  0.52652236  0.77083014  0.12805205     0.02840
C1023       C  0.52634257  0.77713324  0.16607539    -0.11240
H1024       H  0.95461384  0.77944199  0.18062729     0.08440
H1025       H  0.50056456  0.75763805  0.08097193     0.05970
H1026       H  0.54613117  0.78203544  0.18055491     0.05820
Zr1027     Zr  0.92776022  0.28722873  0.01704833     2.17510
O1028       O  0.97077208  0.24162069  0.02602532    -0.51610
O1029       O  0.95209204  0.36054844  0.00810433    -0.74810
O1030       O  0.95218097  0.27379744  0.46064439    -0.81600
O1031       O  0.92250876  0.30067672  0.12198323    -0.83340
O1032       O  0.92243496  0.26890024  0.41221253    -0.78970
O1033       O  0.95244041  0.29244339  0.07401385    -0.90600
O1034       O  0.92339248  0.42381062  0.00211352    -0.76560
O1035       O  0.90290966  0.33212171  0.47278867    -0.86060
O1036       O  0.90277238  0.34381127  0.05208497    -0.85740
O1037       O  0.90135909  0.22942937  0.48392337    -0.72500
O1038       O  0.90111111  0.24086141  0.05921202    -0.84640
Zr1039     Zr  0.82164221  0.28653754  0.01702071     2.26420
Zr1040     Zr  0.87479358  0.27528969  0.44017441     2.06270
Zr1041     Zr  0.87478384  0.29806251  0.09386453     2.10050
Zr1042     Zr  0.87683404  0.38804750  0.00797485     1.78760
O1043       O  0.87449653  0.23979899  0.14295818    -0.93440
O1044       O  0.87464568  0.43493309  0.45206308    -0.41250
O1045       O  0.84840822  0.34362582  0.05008066    -0.77880
O1046       O  0.84838029  0.33255773  0.47462489    -0.96570
O1047       O  0.84664081  0.23015369  0.48194797    -0.89870
O1048       O  0.84681264  0.24169841  0.06111175    -0.92710
C1049       C  0.94794536  0.40478153  0.00325998     1.01040
C1050       C  0.94758880  0.29799090  0.10817522     1.13970
C1051       C  0.94745959  0.26878204  0.42640056     1.04750
O1052       O  0.87448593  0.33163969  0.38975210    -0.94870
O1053       O  0.82679320  0.27172290  0.41254210    -0.90610
O1054       O  0.79674183  0.27633103  0.46074717    -0.83760
C1055       C  0.80166431  0.27219260  0.42647943     1.11390
O1056       O  0.91562070  0.13828031  0.02923634    -0.96840
Zr1057     Zr  0.87256091  0.18554042  0.02583413     1.88940
O1058       O  0.79628611  0.21337520  0.02434585    -0.73490
O1059       O  0.87377567  0.20620463  0.40047996    -0.52750
O1060       O  0.87027559  0.12695572  0.47706839    -0.97430
O1061       O  0.87320084  0.13630537  0.08063717    -0.54650
O1062       O  0.82560186  0.15046735  0.02976894    -0.74010
C1063       C  0.80087344  0.16900278  0.02858812     0.98330
O1064       O  0.78364172  0.34409850  0.01070139    -0.62830
O1065       O  0.87429183  0.36575540  0.13499207    -0.57630
O1066       O  0.79660909  0.29849647  0.07305278    -0.94320
O1067       O  0.82688933  0.30558752  0.12096506    -0.92740
O1068       O  0.88000765  0.44804175  0.05557095    -0.93100
O1069       O  0.83489806  0.43811615  0.00805788    -0.91880
C1070       C  0.80171616  0.30463235  0.10713910     1.17180
H1071       H  0.91547504  0.36440427  0.06530050     0.33120
H1072       H  0.83585855  0.34959244  0.45839452     0.43970
H1073       H  0.83416551  0.22572649  0.07778627     0.37500
H1074       H  0.91389543  0.20781809  0.47147840     0.33980
H1075       H  0.87982056  0.46733144  0.45981779     0.25770
H1076       H  0.87938415  0.21828886  0.37608901     0.31700
H1077       H  0.86348513  0.09773524  0.48914334     0.37610
H1078       H  0.88427076  0.47774388  0.04231224     0.32070
H1079       H  0.87963276  0.35267198  0.15918905     0.30950
H1080       H  0.87298710  0.25868745  0.16567966     0.32630
H1081       H  0.86562204  0.10537856  0.07259407     0.31600
H1082       H  0.82320163  0.42668828  0.48739101     0.35600
H1083       H  0.78833106  0.36953123  0.02829462     0.28330
H1084       H  0.98574960  0.26250493  0.01622502     0.32560
H1085       H  0.90939585  0.10493066  0.02770557     0.35410
H1086       H  0.89075773  0.38508618  0.12751155     0.28030
H1087       H  0.78639099  0.35896049  0.48641335     0.40900
H1088       H  0.89155517  0.35126233  0.39367852     0.30950
H1089       H  0.89095618  0.42408004  0.43732955     0.38570
H1090       H  0.85826878  0.14954840  0.09659124     0.30420
H1091       H  0.88996408  0.18659468  0.40856221     0.30480
H1092       H  0.96965187  0.21482202  0.00866810     0.30750
C1093       C  0.74948162  0.27827547  0.34591576     0.02850
C1094       C  0.77545329  0.27538579  0.36516899    -0.13300
C1095       C  0.77561977  0.26923024  0.40325556     0.00350
C1096       C  0.74949301  0.26425963  0.42122103    -0.11820
C1097       C  0.72345412  0.27085027  0.40335143     0.02840
C1098       C  0.72359359  0.27743428  0.36535549    -0.11240
H1099       H  0.79530516  0.27842301  0.35058348     0.08440
H1100       H  0.74941670  0.25717245  0.45035532     0.05970
H1101       H  0.70379775  0.28293922  0.35102186     0.05820
Zr1102     Zr  0.67784566  0.28478667  0.01766966     2.17510
O1103       O  0.72090628  0.33015282  0.00846128    -0.51610
O1104       O  0.70229040  0.21148799  0.02679012    -0.74810
O1105       O  0.70233928  0.29908609  0.07394459    -0.81600
O1106       O  0.67239318  0.27135495  0.41273108    -0.83340
O1107       O  0.67262738  0.30406656  0.12232481    -0.78970
O1108       O  0.70240179  0.27983477  0.46067965    -0.90600
O1109       O  0.67351461  0.14825123  0.03252281    -0.76560
O1110       O  0.65307155  0.23987011  0.06193751    -0.86060
O1111       O  0.65281616  0.22818453  0.48262462    -0.85740
O1112       O  0.65142085  0.34256733  0.05072731    -0.72500
O1113       O  0.65109323  0.33109382  0.47548413    -0.84640
Zr1114     Zr  0.57170657  0.28532074  0.01770115     2.26420
Zr1115     Zr  0.62494977  0.29670268  0.09450027     2.06270
Zr1116     Zr  0.62471788  0.27386974  0.44084550     2.10050
Zr1117     Zr  0.62695477  0.18393081  0.02671554     1.78760
O1118       O  0.62421787  0.33215891  0.39177082    -0.93440
O1119       O  0.62476878  0.13699229  0.08259332    -0.41250
O1120       O  0.59843311  0.22828185  0.48462074    -0.77880
O1121       O  0.59854113  0.23934771  0.06007423    -0.96570
O1122       O  0.59671218  0.34181722  0.05273023    -0.89870
O1123       O  0.59675984  0.33018686  0.47357796    -0.92710
C1124       C  0.69807990  0.16723126  0.03150842     1.01040
C1125       C  0.69749269  0.27417212  0.42653285     1.13970
C1126       C  0.69763174  0.30438093  0.10814639     1.04750
O1127       O  0.62523781  0.24047030  0.14500273    -0.94870
O1128       O  0.57696429  0.29935425  0.12217510    -0.90610
O1129       O  0.54682931  0.29497064  0.07396045    -0.83760
C1130       C  0.55180512  0.29879332  0.10824601     1.11390
O1131       O  0.66563938  0.43360812  0.00526471    -0.96840
Zr1132     Zr  0.62256277  0.38641510  0.00879999     1.88940
O1133       O  0.54645367  0.35863336  0.01051379    -0.73490
O1134       O  0.62353409  0.36576850  0.13418709    -0.52750
O1135       O  0.62048364  0.44506039  0.05752875    -0.97430
O1136       O  0.62305701  0.43551641  0.45392109    -0.54650
O1137       O  0.57564361  0.42161882  0.00481072    -0.74010
C1138       C  0.55094405  0.40301451  0.00613899     0.98330
O1139       O  0.53364089  0.22784278  0.02388028    -0.62830
O1140       O  0.62428106  0.20627176  0.39962034    -0.57630
O1141       O  0.54654606  0.27321237  0.46174834    -0.94320
O1142       O  0.57675578  0.26614893  0.41384695    -0.92740
O1143       O  0.63016750  0.12394457  0.47912553    -0.93100
O1144       O  0.58505126  0.13378373  0.02646593    -0.91880
C1145       C  0.55160431  0.26708179  0.42767241     1.17180
H1146       H  0.66551128  0.20761192  0.46941490     0.33120
H1147       H  0.58606530  0.22225941  0.07629529     0.43970
H1148       H  0.58406703  0.34611811  0.45690276     0.37500
H1149       H  0.66393232  0.36426619  0.06315769     0.33980
H1150       H  0.63002575  0.10463172  0.07485316     0.25770
H1151       H  0.62931432  0.35381068  0.15856407     0.31700
H1152       H  0.61371045  0.47429449  0.04543963     0.37610
H1153       H  0.63445172  0.09424735  0.49239112     0.32070
H1154       H  0.62973664  0.21938780  0.37549139     0.30950
H1155       H  0.62144531  0.31342208  0.36916712     0.32630
H1156       H  0.61557742  0.46650662  0.46195044     0.31600
H1157       H  0.57328592  0.14531219  0.04699859     0.35600
H1158       H  0.53824590  0.20247896  0.00620332     0.28330
H1159       H  0.73585804  0.30938240  0.01850990     0.32560
H1160       H  0.65943387  0.46697231  0.00670724     0.35410
H1161       H  0.64068922  0.18685645  0.40722609     0.28030
H1162       H  0.53642753  0.21281630  0.04810893     0.40900
H1163       H  0.64237481  0.22106786  0.14096968     0.30950
H1164       H  0.64103128  0.14793558  0.09742219     0.38570
H1165       H  0.60802894  0.42231975  0.43805166     0.30420
H1166       H  0.63954918  0.38571052  0.12605495     0.30480
H1167       H  0.71980341  0.35723632  0.02555030     0.30750
C1168       C  0.50020322  0.27012910  0.34648570     0.02850
C1169       C  0.97408276  0.26889950  0.36539891    -0.13300
C1170       C  0.97357451  0.26369369  0.40357378     0.00350
C1171       C  0.49950789  0.25800754  0.42196649    -0.11820
C1172       C  0.52575933  0.26246796  0.40429936     0.02840
C1173       C  0.52595345  0.26713682  0.36613897    -0.11240
H1174       H  0.95443763  0.27345822  0.35051860     0.08440
H1175       H  0.49931197  0.25225213  0.45122976     0.05970
H1176       H  0.54595525  0.26939370  0.35182434     0.05820
C1177       C  0.75021788  0.30405334  0.18832658     0.02850
C1178       C  0.77600318  0.30473837  0.16865482    -0.13300
C1179       C  0.77590428  0.30963874  0.13047491     0.00350
C1180       C  0.74971406  0.31485052  0.11269633    -0.11820
C1181       C  0.72373787  0.30979782  0.13099018     0.02840
C1182       C  0.72414649  0.30548740  0.16919961    -0.11240
H1183       H  0.79588921  0.29996785  0.18293313     0.08440
H1184       H  0.74956233  0.32046047  0.08341443     0.05970
H1185       H  0.70438421  0.30236650  0.18397828     0.05820
C1186       C  0.49966947  0.29101456  0.18861484     0.02850
C1187       C  0.97372876  0.29422200  0.16937712    -0.13300
C1188       C  0.97359369  0.30093374  0.13139143     0.00350
C1189       C  0.49965862  0.30707622  0.11354926    -0.11820
C1190       C  0.52578661  0.30141091  0.13147326     0.02840
C1191       C  0.52562247  0.29407552  0.16943063    -0.11240
H1192       H  0.95385192  0.29093512  0.18386020     0.08440
H1193       H  0.49957763  0.31453507  0.08446939     0.05970
H1194       H  0.54544057  0.28957690  0.18393205     0.05820
C1195       C  0.72471325  0.93303238  0.02860814     0.02850
C1196       C  0.75046525  0.91003289  0.03294009    -0.13300
C1197       C  0.77612164  0.93396053  0.03082367     0.00350
C1198       C  0.77598252  0.98344641  0.02937231    -0.11820
C1199       C  0.75010133  0.00919564  0.02792299     0.02840
C1200       C  0.72448394  0.98256713  0.02611570    -0.11240
H1201       H  0.75058457  0.87203490  0.03643938     0.08440
H1202       H  0.79626722  0.00062338  0.02938745     0.05970
H1203       H  0.70420000  0.99909868  0.02238123     0.05820
C1204       C  0.77531477  0.13884249  0.03217206     0.02850
C1205       C  0.77548609  0.08954051  0.02786011    -0.13300
C1206       C  0.74987689  0.06286653  0.02894428     0.00350
C1207       C  0.72403381  0.08856129  0.03139872    -0.11820
C1208       C  0.72395996  0.13791989  0.03464758     0.02840
C1209       C  0.74963777  0.16160797  0.03775085    -0.11240
H1210       H  0.79570876  0.07328006  0.02308773     0.08440
H1211       H  0.70373394  0.07146143  0.03059331     0.05970
H1212       H  0.74957231  0.19936232  0.04261651     0.05820
C1213       C  0.49981425  0.28447625  0.22894738    -0.00430
C1214       C  0.51562813  0.31595774  0.25046587    -0.12310
C1215       C  0.51602210  0.31208875  0.28866599     0.01800
C1216       C  0.50047494  0.27583293  0.30609036    -0.00520
C1217       C  0.98474753  0.24420890  0.28458151    -0.12250
C1218       C  0.98439045  0.24803987  0.24634975     0.01690
H1219       H  0.52732019  0.34429028  0.23736484     0.14670
H1220       H  0.97300406  0.21596858  0.29772380     0.14670
C1221       C  0.96881783  0.21318123  0.22566772     0.36320
C1222       C  0.53169540  0.34686610  0.30930506     0.36230
N1223       N  0.95628440  0.18529211  0.20911700    -0.44020
N1224       N  0.54432688  0.37464888  0.32583687    -0.44020
C1225       C  0.74946593  0.28443998  0.30551920    -0.00430
C1226       C  0.76620424  0.32017403  0.28991954    -0.12310
C1227       C  0.76674011  0.32734324  0.25197209     0.01800
C1228       C  0.75036724  0.29817841  0.22876244    -0.00520
C1229       C  0.73368862  0.26240882  0.24439108    -0.12250
C1230       C  0.73311137  0.25530081  0.28229590     0.01690
H1231       H  0.77858114  0.34309638  0.30752630     0.14670
H1232       H  0.72135195  0.23937582  0.22682319     0.14670
C1233       C  0.71624660  0.21685394  0.29644282     0.36320
C1234       C  0.78353753  0.36584377  0.23777836     0.36230
N1235       N  0.70263139  0.18615500  0.30775118    -0.44020
N1236       N  0.79708154  0.39662481  0.22645569    -0.44020
C1237       C  0.49981270  0.79826065  0.30242185    -0.00430
C1238       C  0.51526871  0.76095520  0.28692728    -0.12310
C1239       C  0.51564876  0.75382388  0.24902368     0.01800
C1240       C  0.50040361  0.78454160  0.22573845    -0.00520
C1241       C  0.98489148  0.82182592  0.24120478    -0.12250
C1242       C  0.98454783  0.82900584  0.27915274     0.01690
H1243       H  0.52676225  0.73681176  0.30459733     0.14670
H1244       H  0.97336643  0.84588201  0.22349922     0.14670
C1245       C  0.96920053  0.86911515  0.29335262     0.36320
C1246       C  0.53106554  0.71376185  0.23487214     0.36230
N1247       N  0.95688692  0.90125652  0.30470802    -0.44020
N1248       N  0.54345312  0.68169522  0.22353021    -0.44020
C1249       C  0.75009666  0.77375114  0.22536279    -0.00430
C1250       C  0.76132869  0.81522093  0.24058008    -0.12310
C1251       C  0.76128309  0.82235594  0.27851648     0.01800
C1252       C  0.75001764  0.78742368  0.30192735    -0.00520
C1253       C  0.73873316  0.74595524  0.28673461    -0.12250
C1254       C  0.73879339  0.73880223  0.24875720     0.01690
H1255       H  0.76980531  0.84236760  0.22269363     0.14670
H1256       H  0.73025633  0.71884046  0.30464743     0.14670
C1257       C  0.72811875  0.69468420  0.23450600     0.36320
C1258       C  0.77201262  0.86645005  0.29273641     0.36230
N1259       N  0.71968948  0.65923401  0.22308730    -0.44020
N1260       N  0.78049674  0.90185567  0.30416396    -0.44020
C1261       C  0.52604788  0.63788416  0.49690058     0.02850
C1262       C  0.52595911  0.58850905  0.99998315    -0.13300
C1263       C  0.00010806  0.56282193  0.00237878     0.00350
C1264       C  0.97450163  0.58949829  0.00352416    -0.11820
C1265       C  0.97468327  0.63883440  0.49933106     0.02840
C1266       C  0.50037687  0.66161909  0.49387381    -0.11240
H1267       H  0.54625437  0.57138675  0.00066838     0.08440
H1268       H  0.95427464  0.57319510  0.00822313     0.05970
H1269       H  0.50046005  0.69940585  0.48910917     0.05820
C1270       C  0.52530340  0.43303733  0.50244868     0.02850
C1271       C  0.52550044  0.48254144  0.50511929    -0.13300
C1272       C  0.99988292  0.50915088  0.50323692     0.00350
C1273       C  0.97401613  0.48339006  0.50157908    -0.11820
C1274       C  0.97390076  0.43390902  0.50000325     0.02840
C1275       C  0.99957498  0.41002829  0.49790560    -0.11240
H1276       H  0.54575999  0.49906056  0.50908470     0.08440
H1277       H  0.95372906  0.50056275  0.50152045     0.05970
H1278       H  0.99948366  0.37205316  0.49430300     0.05820
Zr1279     Zr  0.82220099  0.78726806  0.51392969     2.17510
O1280       O  0.77910304  0.74189635  0.50506403    -0.51610
O1281       O  0.79794524  0.86064313  0.52274704    -0.74810
O1282       O  0.79780377  0.77375278  0.57045836    -0.81600
O1283       O  0.82751616  0.80094965  0.90881507    -0.83340
O1284       O  0.82762152  0.76884051  0.61883501    -0.78970
O1285       O  0.79762603  0.79240567  0.95679802    -0.90600
O1286       O  0.82663080  0.92392021  0.52862907    -0.76560
O1287       O  0.84707131  0.83219825  0.55808838    -0.86060
O1288       O  0.84722264  0.84382986  0.97879260    -0.85740
O1289       O  0.84863270  0.72953108  0.54718072    -0.72500
O1290       O  0.84888565  0.74089061  0.97187209    -0.84640
Zr1291     Zr  0.92837431  0.78661019  0.51403185     2.26420
Zr1292     Zr  0.87520709  0.77542948  0.59083492     2.06270
Zr1293     Zr  0.87522399  0.79807460  0.93709134     2.10050
Zr1294     Zr  0.87316514  0.88810623  0.52281243     1.78760
O1295       O  0.87550948  0.73954144  0.88829112    -0.93440
O1296       O  0.87533854  0.93496020  0.57866685    -0.41250
O1297       O  0.90159495  0.84363776  0.98082068    -0.77880
O1298       O  0.90162110  0.83267806  0.55629141    -0.96570
O1299       O  0.90337026  0.73023522  0.54919352    -0.89870
O1300       O  0.90320549  0.74175970  0.97000576    -0.92710
C1301       C  0.80208321  0.90487470  0.52752975     1.01040
C1302       C  0.80243431  0.79813861  0.92261957     1.13970
C1303       C  0.80258170  0.76869100  0.60471047     1.04750
O1304       O  0.87535050  0.83182791  0.64113507    -0.94870
O1305       O  0.92316670  0.77218190  0.61859197    -0.90610
O1306       O  0.95325361  0.77673243  0.57041441    -0.83760
C1307       C  0.94830740  0.77270359  0.60469779     1.11390
O1308       O  0.83438496  0.63834312  0.50201689    -0.96840
Zr1309     Zr  0.87744220  0.68561171  0.50538258     1.88940
O1310       O  0.95369745  0.71337947  0.50697443    -0.73490
O1311       O  0.87634259  0.70634469  0.63063818    -0.52750
O1312       O  0.87963798  0.62712511  0.55432180    -0.97430
O1313       O  0.87688343  0.63628062  0.95071141    -0.54650
O1314       O  0.92438775  0.65047139  0.50161145    -0.74010
C1315       C  0.94911651  0.66899997  0.50281629     0.98330
O1316       O  0.96641001  0.84413756  0.52014345    -0.62830
O1317       O  0.87581283  0.86564135  0.89573123    -0.57630
O1318       O  0.95338620  0.79854500  0.95796385    -0.94320
O1319       O  0.92314827  0.80569052  0.91000464    -0.92740
O1320       O  0.87005381  0.94809698  0.97511037    -0.93100
O1321       O  0.91511808  0.93814324  0.52267836    -0.91880
C1322       C  0.94831493  0.80471442  0.92386294     1.17180
H1323       H  0.83452825  0.86442374  0.96553190     0.33120
H1324       H  0.91413156  0.84974134  0.57249081     0.43970
H1325       H  0.91586150  0.72577228  0.95337836     0.37500
H1326       H  0.83610729  0.70791253  0.55967339     0.33980
H1327       H  0.87020046  0.96737551  0.57086203     0.25770
H1328       H  0.87074460  0.71840905  0.65501906     0.31700
H1329       H  0.88644864  0.59788045  0.54235073     0.37610
H1330       H  0.86582174  0.97781288  0.98831773     0.32070
H1331       H  0.87036571  0.85253594  0.87160211     0.30950
H1332       H  0.87767693  0.75824407  0.86553660     0.32630
H1333       H  0.88439521  0.60533817  0.95887276     0.31600
H1334       H  0.92679393  0.92673402  0.54338869     0.35600
H1335       H  0.96173960  0.86952580  0.00246114     0.28330
H1336       H  0.76419344  0.76286471  0.51489306     0.32560
H1337       H  0.84060565  0.60499597  0.50365373     0.35410
H1338       H  0.85942809  0.88513445  0.90322340     0.28030
H1339       H  0.96366873  0.85909002  0.54437560     0.40900
H1340       H  0.85824120  0.85134147  0.63714770     0.30950
H1341       H  0.85900504  0.92413843  0.59339019     0.38570
H1342       H  0.89187822  0.64943527  0.93478966     0.30420
H1343       H  0.86016806  0.68668308  0.62261415     0.30480
H1344       H  0.78019249  0.71506619  0.52243950     0.30750
C1345       C  0.75008221  0.79336730  0.84220555     0.02850
C1346       C  0.72418437  0.79508270  0.86152601    -0.13300
C1347       C  0.72413062  0.80145485  0.89960949     0.00350
C1348       C  0.75031200  0.80687990  0.91746172    -0.11820
C1349       C  0.77636251  0.80131820  0.89943843     0.02840
C1350       C  0.77609843  0.79560483  0.86132075    -0.11240
H1351       H  0.70436129  0.79111195  0.84695207     0.08440
H1352       H  0.75044341  0.81369899  0.94661866     0.05970
H1353       H  0.79584495  0.79173607  0.84660969     0.05820
Zr1354     Zr  0.57220313  0.78463828  0.51373598     2.17510
O1355       O  0.52917257  0.83011201  0.52276362    -0.51610
O1356       O  0.54774857  0.71138376  0.50475597    -0.74810
O1357       O  0.54771887  0.79867896  0.95735278    -0.81600
O1358       O  0.57762194  0.77120153  0.61874076    -0.83340
O1359       O  0.57745692  0.80357918  0.90898618    -0.78970
O1360       O  0.54765269  0.77966663  0.57073862    -0.90600
O1361       O  0.57650875  0.64814556  0.49905965    -0.76560
O1362       O  0.59697732  0.73967381  0.96958021    -0.86060
O1363       O  0.59723091  0.72805529  0.54891419    -0.85740
O1364       O  0.59862856  0.84238813  0.98056556    -0.72500
O1365       O  0.59896258  0.83092221  0.55586026    -0.84640
Zr1366     Zr  0.67839964  0.78516479  0.51374615     2.26420
Zr1367     Zr  0.62510225  0.79646675  0.93691455     2.06270
Zr1368     Zr  0.62533486  0.77372513  0.59064444     2.10050
Zr1369     Zr  0.62309064  0.68377245  0.50491218     1.78760
O1370       O  0.62581251  0.83223627  0.63945884    -0.93440
O1371       O  0.62531201  0.63686300  0.94909812    -0.41250
O1372       O  0.65162155  0.72815832  0.54691518    -0.77880
O1373       O  0.65153248  0.73917527  0.97147690    -0.96570
O1374       O  0.65335259  0.84159617  0.97860413    -0.89870
O1375       O  0.65330170  0.83001941  0.55776941    -0.92710
C1376       C  0.55194623  0.66714151  0.50005589     1.01040
C1377       C  0.55252732  0.77402494  0.60490611     1.13970
C1378       C  0.55244394  0.80386705  0.92312857     1.04750
O1379       O  0.62493690  0.74008102  0.88660513    -0.94870
O1380       O  0.67299625  0.79929894  0.90909364    -0.90610
O1381       O  0.70317832  0.79463929  0.95725653    -0.83760
C1382       C  0.69816624  0.79861983  0.92296035     1.11390
O1383       O  0.58439189  0.93336301  0.52588218    -0.96840
Zr1384     Zr  0.62748833  0.88622583  0.52242832     1.88940
O1385       O  0.70358059  0.85858331  0.52071529    -0.73490
O1386       O  0.62641449  0.86552483  0.89709789    -0.52750
O1387       O  0.62957009  0.94477839  0.97353492    -0.97430
O1388       O  0.62698610  0.93544215  0.57716264    -0.54650
O1389       O  0.67437358  0.92153655  0.52635039    -0.74010
C1390       C  0.69907809  0.90296699  0.52501624     0.98330
O1391       O  0.71648065  0.72771376  0.50778657    -0.62830
O1392       O  0.62571496  0.70614488  0.63199955    -0.57630
O1393       O  0.70341548  0.77313322  0.56994604    -0.94320
O1394       O  0.67325465  0.76585755  0.61788354    -0.92740
O1395       O  0.61982518  0.62376311  0.55257657    -0.93100
O1396       O  0.66497701  0.63359076  0.50525900    -0.91880
C1397       C  0.69840714  0.76687223  0.60405307     1.17180
H1398       H  0.58453038  0.70748436  0.56215196     0.33080
H1399       H  0.66400252  0.72207367  0.95528558     0.43970
H1400       H  0.66598646  0.84597597  0.57441486     0.37500
H1401       H  0.58611433  0.86406447  0.96808135     0.33980
H1402       H  0.62007367  0.60448952  0.95688194     0.25770
H1403       H  0.62069848  0.85351773  0.87272961     0.31700
H1404       H  0.63630282  0.97405559  0.98555204     0.37610
H1405       H  0.61553807  0.59407847  0.53934367     0.32070
H1406       H  0.62025102  0.71927503  0.65609878     0.30950
H1407       H  0.62758521  0.81347135  0.66224535     0.32630
H1408       H  0.63440474  0.96644993  0.56902599     0.31600
H1409       H  0.67678579  0.64518665  0.98476420     0.35600
H1410       H  0.71186744  0.70239044  0.52553675     0.28330
H1411       H  0.51420815  0.80930365  0.51282631     0.32560
H1412       H  0.59057511  0.96672916  0.52425213     0.35410
H1413       H  0.60930368  0.68674312  0.62441323     0.28030
H1414       H  0.71371003  0.71263711  0.98359960     0.40900
H1415       H  0.60775194  0.72076455  0.89058040     0.30950
H1416       H  0.60904362  0.64778225  0.93425226     0.38570
H1417       H  0.64205691  0.92234811  0.59303579     0.30420
H1418       H  0.61034245  0.88536854  0.90514983     0.30480
H1419       H  0.53028209  0.85709258  0.50553351     0.30750
C1420       C  0.49995182  0.80401399  0.84281861     0.02850
C1421       C  0.97412243  0.80514451  0.86236601    -0.13300
C1422       C  0.97417620  0.80966105  0.90057416     0.00350
C1423       C  0.50036971  0.81443950  0.91843517    -0.11820
C1424       C  0.52636331  0.80924366  0.90020847     0.02840
C1425       C  0.52599541  0.80492471  0.86199510    -0.11240
H1426       H  0.95424700  0.80099461  0.84794693     0.08440
H1427       H  0.50050154  0.81989075  0.94772533     0.05970
H1428       H  0.54574330  0.80146026  0.84723187     0.05820
C1429       C  0.75023540  0.76806238  0.68505612     0.02850
C1430       C  0.77623215  0.76796621  0.66591143    -0.13300
C1431       C  0.77654831  0.76342007  0.62768698     0.00350
C1432       C  0.75053153  0.75786959  0.60947798    -0.11820
C1433       C  0.72433234  0.76201222  0.62737566     0.02840
C1434       C  0.72434683  0.76600804  0.66564908    -0.11240
H1435       H  0.79593301  0.77213957  0.68072981     0.08440
H1436       H  0.75063178  0.75254613  0.58017484     0.05970
H1437       H  0.70450522  0.76912587  0.68025207     0.05820
C1438       C  0.50040471  0.77848273  0.68537960     0.02850
C1439       C  0.97445514  0.77605520  0.66607193    -0.13300
C1440       C  0.97432640  0.76981068  0.62799441     0.00350
C1441       C  0.50047083  0.76464264  0.61010456    -0.11820
C1442       C  0.52651960  0.77082887  0.62805178     0.02840
C1443       C  0.52634015  0.77713218  0.66607503    -0.11240
H1444       H  0.95461157  0.77944163  0.68062795     0.08440
H1445       H  0.50056152  0.75763673  0.58097199     0.05970
H1446       H  0.54612890  0.78203447  0.68055419     0.05820
Zr1447     Zr  0.92775978  0.28722706  0.51704838     2.17510
O1448       O  0.97077122  0.24161798  0.52602529    -0.51610
O1449       O  0.95209182  0.36054675  0.50810466    -0.74810
O1450       O  0.95218136  0.27379855  0.96064436    -0.81600
O1451       O  0.92250838  0.30067557  0.62198320    -0.83340
O1452       O  0.92243531  0.26890128  0.91221253    -0.78970
O1453       O  0.95244006  0.29244223  0.57401384    -0.90600
O1454       O  0.92339195  0.42380862  0.50211387    -0.76560
O1455       O  0.90291008  0.33212329  0.97278860    -0.86060
O1456       O  0.90277194  0.34380964  0.55208497    -0.85740
O1457       O  0.90135964  0.22943095  0.98392332    -0.72500
O1458       O  0.90111055  0.24085976  0.55921201    -0.84640
Zr1459     Zr  0.82164176  0.28653608  0.51702073     2.26420
Zr1460     Zr  0.87479398  0.27529115  0.94017441     2.06270
Zr1461     Zr  0.87478343  0.29806100  0.59386456     2.10050
Zr1462     Zr  0.87683355  0.38804583  0.50797491     1.78760
O1463       O  0.87449614  0.23979791  0.64295852    -0.93440
O1464       O  0.87464605  0.43493467  0.95206299    -0.41250
O1465       O  0.84840776  0.34362426  0.55008073    -0.77880
O1466       O  0.84838074  0.33255927  0.97462490    -0.96570
O1467       O  0.84664131  0.23015513  0.98194803    -0.89870
O1468       O  0.84681212  0.24169693  0.56111183    -0.92710
C1469       C  0.94794490  0.40477983  0.50326047     1.01040
C1470       C  0.94758843  0.29798991  0.60817520     1.13970
C1471       C  0.94745994  0.26878293  0.92640055     1.04750
O1472       O  0.87448630  0.33164088  0.88975193    -0.94870
O1473       O  0.82679360  0.27172396  0.91254212    -0.90610
O1474       O  0.79674224  0.27633217  0.96074718    -0.83760
C1475       C  0.80166470  0.27219356  0.92647946     1.11390
O1476       O  0.91562008  0.13827886  0.52923637    -0.96840
Zr1477     Zr  0.87256024  0.18553883  0.52583413     1.88940
O1478       O  0.79628541  0.21337396  0.52434571    -0.73490
O1479       O  0.87377596  0.20620587  0.90048020    -0.52750
O1480       O  0.87027621  0.12695746  0.97706828    -0.97430
O1481       O  0.87320014  0.13630378  0.58063717    -0.54650
O1482       O  0.82560099  0.15046589  0.52976877    -0.74010
C1483       C  0.80087259  0.16900149  0.52858793     0.98330
O1484       O  0.78364148  0.34409741  0.51070142    -0.62830
O1485       O  0.87429153  0.36575427  0.63499174    -0.57630
O1486       O  0.79660870  0.29849533  0.57305280    -0.94320
O1487       O  0.82688898  0.30558657  0.62096504    -0.92740
O1488       O  0.88000735  0.44804022  0.55557089    -0.93100
O1489       O  0.83489767  0.43811471  0.50805804    -0.91880
C1490       C  0.80171581  0.30463147  0.60713909     1.17180
H1491       H  0.91547459  0.36440268  0.56530048     0.33120
H1492       H  0.83585898  0.34959393  0.95839452     0.43970
H1493       H  0.83416495  0.22572508  0.57778634     0.37500
H1494       H  0.91389597  0.20781966  0.97147836     0.33980
H1495       H  0.87982094  0.46733303  0.95981765     0.25770
H1496       H  0.87938446  0.21828993  0.87608921     0.31700
H1497       H  0.86348569  0.09773697  0.98914315     0.37610
H1498       H  0.88427066  0.47774224  0.54231213     0.32070
H1499       H  0.87963256  0.35267109  0.65918876     0.30950
H1500       H  0.87298702  0.25868661  0.66567991     0.32630
H1501       H  0.86562127  0.10537702  0.57259408     0.31600
H1502       H  0.82320197  0.42668944  0.98739099     0.35600
H1503       H  0.78833092  0.36953012  0.52829462     0.28330
H1504       H  0.98574885  0.26250211  0.51622519     0.32560
H1505       H  0.90939526  0.10492918  0.52770571     0.35410
H1506       H  0.89075737  0.38508503  0.62751102     0.28030
H1507       H  0.78639121  0.35896163  0.98641334     0.40900
H1508       H  0.89155551  0.35126362  0.89367833     0.30950
H1509       H  0.89095651  0.42408158  0.93732940     0.38570
H1510       H  0.85826813  0.14954691  0.59659127     0.30420
H1511       H  0.88996432  0.18659587  0.90856252     0.30480
H1512       H  0.96965086  0.21481961  0.50866780     0.30750
C1513       C  0.74948192  0.27827538  0.84591578     0.02850
C1514       C  0.77545363  0.27538612  0.86516899    -0.13300
C1515       C  0.77562016  0.26923075  0.90325559     0.00350
C1516       C  0.74949344  0.26425982  0.92122109    -0.11820
C1517       C  0.72345451  0.27085000  0.90335147     0.02840
C1518       C  0.72359392  0.27743392  0.86535554    -0.11240
H1519       H  0.79530547  0.27842355  0.85058346     0.08440
H1520       H  0.74941718  0.25717275  0.95035539     0.05970
H1521       H  0.70379804  0.28293862  0.85102194     0.05820
Zr1522     Zr  0.67784529  0.28478736  0.51766968     2.17510
O1523       O  0.72090605  0.33015309  0.50846130    -0.51610
O1524       O  0.70228972  0.21148829  0.52679029    -0.74810
O1525       O  0.70233893  0.29908658  0.57394462    -0.81600
O1526       O  0.67239356  0.27135404  0.91273110    -0.83340
O1527       O  0.67262707  0.30406711  0.62232487    -0.78970
O1528       O  0.70240215  0.27983433  0.96067965    -0.90600
O1529       O  0.67351370  0.14825180  0.53252286    -0.76560
O1530       O  0.65307106  0.23987087  0.56193746    -0.86060
O1531       O  0.65281665  0.22818362  0.98262464    -0.85740
O1532       O  0.65142051  0.34256817  0.55072732    -0.72500
O1533       O  0.65109358  0.33109277  0.97548394    -0.84640
Zr1534     Zr  0.57170626  0.28532205  0.51770117     2.26420
Zr1535     Zr  0.62494943  0.29670354  0.59450031     2.06270
Zr1536     Zr  0.62471823  0.27386853  0.94084547     2.10050
Zr1537     Zr  0.62695411  0.18393182  0.52671544     1.78760
O1538       O  0.62421820  0.33215786  0.89177090    -0.93440
O1539       O  0.62476800  0.13699328  0.58259320    -0.41250
O1540       O  0.59843359  0.22828058  0.98462082    -0.77880
O1541       O  0.59854066  0.23934881  0.56007422    -0.96570
O1542       O  0.59671188  0.34181834  0.55273038    -0.89870
O1543       O  0.59676017  0.33018555  0.97357793    -0.92710
C1544       C  0.69807903  0.16723158  0.53150857     1.01040
C1545       C  0.69749306  0.27417155  0.92653287     1.13970
C1546       C  0.69763143  0.30438137  0.60814644     1.04750
O1547       O  0.62523750  0.24047087  0.64500258    -0.94870
O1548       O  0.57696393  0.29935490  0.62217511    -0.90610
O1549       O  0.54682896  0.29497164  0.57396041    -0.83760
C1550       C  0.55180476  0.29879404  0.60824599     1.11390
O1551       O  0.66563912  0.43360909  0.50526472    -0.96840
Zr1552     Zr  0.62256241  0.38641633  0.50880015     1.88940
O1553       O  0.54645351  0.35863479  0.51051427    -0.73490
O1554       O  0.62353389  0.36576910  0.63418741    -0.52750
O1555       O  0.62048378  0.44506153  0.55752901    -0.97430
O1556       O  0.62305744  0.43551536  0.95392102    -0.54650
O1557       O  0.57564317  0.42162056  0.50481130    -0.74010
C1558       C  0.55094366  0.40301602  0.50613963     0.98330
O1559       O  0.53364064  0.22784397  0.52388014    -0.62830
O1560       O  0.62428141  0.20627065  0.89962023    -0.57630
O1561       O  0.54654643  0.27321095  0.96174830    -0.94320
O1562       O  0.57675611  0.26614808  0.91384683    -0.92740
O1563       O  0.63016819  0.12394338  0.97912577    -0.93100
O1564       O  0.58505052  0.13378492  0.52646572    -0.91880
C1565       C  0.55160465  0.26708078  0.92767232     1.17180
H1566       H  0.66551181  0.20761108  0.96941492     0.33120
H1567       H  0.58606479  0.22226054  0.57629526     0.43970
H1568       H  0.58406738  0.34611678  0.95690269     0.37500
H1569       H  0.66393203  0.36426694  0.56315772     0.33980
H1570       H  0.63002488  0.10463268  0.57485304     0.25770
H1571       H  0.62931414  0.35381109  0.65856433     0.31700
H1572       H  0.61371065  0.47429572  0.54543999     0.37610
H1573       H  0.63445244  0.09424622  0.99239142     0.32070
H1574       H  0.62973692  0.21938676  0.87549128     0.30950
H1575       H  0.62144549  0.31342113  0.86916718     0.32630
H1576       H  0.61557771  0.46650547  0.96195037     0.31600
H1577       H  0.57328530  0.14531314  0.54699858     0.35600
H1578       H  0.53824570  0.20248020  0.50620315     0.28330
H1579       H  0.73585770  0.30938249  0.51850995     0.32560
H1580       H  0.65943366  0.46697334  0.50670694     0.35410
H1581       H  0.64068962  0.18685539  0.90722589     0.28030
H1582       H  0.53642726  0.21281744  0.54810877     0.40900
H1583       H  0.64237457  0.22106858  0.64096954     0.30950
H1584       H  0.64103052  0.14793643  0.59742208     0.38570
H1585       H  0.60802948  0.42231859  0.93805147     0.30420
H1586       H  0.63954899  0.38571112  0.62605532     0.30480
H1587       H  0.71980328  0.35723660  0.52555032     0.30750
C1588       C  0.50020347  0.27012900  0.84648566     0.02850
C1589       C  0.97408303  0.26889983  0.86539891    -0.13300
C1590       C  0.97357480  0.26369407  0.90357377     0.00350
C1591       C  0.49950815  0.25800742  0.92196643    -0.11820
C1592       C  0.52575962  0.26246741  0.90429927     0.02840
C1593       C  0.52595372  0.26713637  0.86613887    -0.11240
H1594       H  0.95443791  0.27345888  0.85051864     0.08440
H1595       H  0.49931220  0.25225198  0.95122970     0.05970
H1596       H  0.54595550  0.26939302  0.85182419     0.05820
C1597       C  0.75021764  0.30405336  0.68832660     0.02850
C1598       C  0.77600292  0.30473807  0.66865480    -0.13300
C1599       C  0.77590398  0.30963831  0.63047489     0.00350
C1600       C  0.74971378  0.31485039  0.61269634    -0.11820
C1601       C  0.72373758  0.30979800  0.63099023     0.02840
C1602       C  0.72414623  0.30548762  0.66919968    -0.11240
H1603       H  0.79588894  0.29996737  0.68293309     0.08440
H1604       H  0.74956207  0.32046030  0.58341444     0.05970
H1605       H  0.70438396  0.30236690  0.68397838     0.05820
C1606       C  0.49966919  0.29101460  0.68861483     0.02850
C1607       C  0.97372844  0.29422162  0.66937712    -0.13300
C1608       C  0.97359332  0.30093322  0.63139141     0.00350
C1609       C  0.49965820  0.30707607  0.61354922    -0.11820
C1610       C  0.52578623  0.30141123  0.63147323     0.02840
C1611       C  0.52562215  0.29407590  0.66943059    -0.11240
H1612       H  0.95385163  0.29093452  0.68386022     0.08440
H1613       H  0.49957714  0.31453481  0.58446934     0.05970
H1614       H  0.54544028  0.28957758  0.68393199     0.05820
C1615       C  0.72471102  0.93303161  0.52860734     0.02850
C1616       C  0.75046298  0.91003223  0.53293951    -0.13300
C1617       C  0.77611939  0.93396007  0.53082394     0.00350
C1618       C  0.77598032  0.98344581  0.52937300    -0.11820
C1619       C  0.75009924  0.00919505  0.52792303     0.02840
C1620       C  0.72448178  0.98256657  0.52611517    -0.11240
H1621       H  0.75058228  0.87203419  0.53643846     0.08440
H1622       H  0.79626505  0.00062269  0.52938904     0.05970
H1623       H  0.70419791  0.99909838  0.52238051     0.05820
C1624       C  0.77531372  0.13884151  0.53217187     0.02850
C1625       C  0.77548462  0.08953954  0.52785970    -0.13300
C1626       C  0.74987522  0.06286597  0.52894427     0.00350
C1627       C  0.72403236  0.08856114  0.53139901    -0.11820
C1628       C  0.72395889  0.13791978  0.53464774     0.02840
C1629       C  0.74963687  0.16160740  0.53775088    -0.11240
H1630       H  0.79570714  0.07327883  0.52308676     0.08440
H1631       H  0.70373241  0.07146145  0.53059390     0.05970
H1632       H  0.74957163  0.19936174  0.54261659     0.05820
C1633       C  0.49981406  0.28447630  0.72894737    -0.00430
C1634       C  0.51562800  0.31595779  0.75046580    -0.12310
C1635       C  0.51602215  0.31208869  0.78866591     0.01800
C1636       C  0.50047511  0.27583280  0.80609033    -0.00520
C1637       C  0.98474763  0.24420877  0.78458155    -0.12250
C1638       C  0.98439038  0.24803981  0.74634980     0.01690
H1639       H  0.52731998  0.34429041  0.73736475     0.14670
H1640       H  0.97300423  0.21596840  0.79772389     0.14670
C1641       C  0.96881775  0.21318114  0.72566784     0.36320
C1642       C  0.53169550  0.34686600  0.80930496     0.36230
N1643       N  0.95628430  0.18529198  0.70911717    -0.44020
N1644       N  0.54432701  0.37464876  0.82583676    -0.44020
C1645       C  0.74946613  0.28443985  0.80551921    -0.00430
C1646       C  0.76620438  0.32017392  0.78991946    -0.12310
C1647       C  0.76674008  0.32734321  0.75197203     0.01800
C1648       C  0.75036709  0.29817846  0.72876246    -0.00520
C1649       C  0.73368852  0.26240887  0.74439116    -0.12250
C1650       C  0.73311145  0.25530075  0.78229597     0.01690
H1651       H  0.77858136  0.34309623  0.80752615     0.14670
H1652       H  0.72135175  0.23937594  0.72682332     0.14670
C1653       C  0.71624672  0.21685385  0.79644294     0.36320
C1654       C  0.78353750  0.36584370  0.73777822     0.36230
N1655       N  0.70263154  0.18615489  0.80775132    -0.44020
N1656       N  0.79708150  0.39662472  0.72645550    -0.44020
C1657       C  0.49981433  0.79826187  0.80242185    -0.00430
C1658       C  0.51526988  0.76095623  0.78692684    -0.12310
C1659       C  0.51564841  0.75382390  0.74902332     0.01800
C1660       C  0.50040219  0.78454083  0.72573855    -0.00520
C1661       C  0.98489053  0.82182536  0.74120533    -0.12250
C1662       C  0.98454839  0.82900626  0.77915322     0.01690
H1663       H  0.52676412  0.73681327  0.80459651     0.14670
H1664       H  0.97336477  0.84588096  0.72350016     0.14670
C1665       C  0.96920142  0.86911571  0.79335348     0.36320
C1666       C  0.53106481  0.71376165  0.73487145     0.36230
N1667       N  0.95688805  0.90125715  0.80470922    -0.44020
N1668       N  0.54345210  0.68169485  0.72352930    -0.44020
C1669       C  0.75009478  0.77375175  0.72536280    -0.00430
C1670       C  0.76132714  0.81522158  0.74057968    -0.12310
C1671       C  0.76128309  0.82235606  0.77851614     0.01800
C1672       C  0.75001888  0.78742326  0.80192748    -0.00520
C1673       C  0.73873404  0.74595480  0.78673518    -0.12250
C1674       C  0.73879277  0.73880227  0.74875769     0.01690
H1675       H  0.76980296  0.84236856  0.72269287     0.14670
H1676       H  0.73025803  0.71883970  0.80464837     0.14670
C1677       C  0.72811803  0.69468411  0.73450686     0.36320
C1678       C  0.77201293  0.86645014  0.79273571     0.36230
N1679       N  0.71968871  0.65923383  0.72308841    -0.44020
N1680       N  0.78049729  0.90185575  0.80416299    -0.44020
loop_ 
_geom_bond_atom_site_label_1 
_geom_bond_atom_site_label_2 
_geom_bond_distance 
_geom_bond_site_symmetry_2 
_ccdc_geom_bond_type 
C1            C6   1.392       .  A
C1          C422   1.401       .  A
C1          C116   1.483   1_556  S
C2          C421   1.401       .  A
C2          C843   1.425       .  A
C2            H7   1.075       .  S
C3            C4   1.428       .  A
C3          C842   1.425       .  A
C3          C432   1.519       .  S
C4          C425   1.404       .  A
C4            H8   1.076       .  S
C5          C424   1.404   1_556  A
C5          C846   1.390       .  A
C5           C55   1.486   1_556  S
C6          C845   1.390   1_455  A
C6            H9   1.083       .  S
C10          C11   1.404       .  A
C10         C855   1.390   1_454  A
C10         C298   1.486       .  S
C11         C852   1.428   1_455  A
C11          H16   1.076       .  S
C12          C13   1.425       .  A
C12         C851   1.428       .  A
C12         C423   1.519       .  S
C13          C14   1.401       .  A
C13          H17   1.075       .  S
C14          C15   1.392   1_554  A
C14         C209   1.483       .  S
C15         C850   1.390   1_556  A
C15          H18   1.083       .  S
Zr19         O20   2.430       .  S
Zr19         O21   2.394       .  S
Zr19         O22   2.396       .  S
Zr19        O445   2.391   1_554  S
Zr19         O27   2.366       .  S
Zr19         O29   2.387       .  S
Zr19        O448   2.368   1_554  S
Zr19        O450   2.384   1_554  S
O20          H76   0.989       .  S
O20          H84   0.990       .  S
O21          C41   1.279       .  A
O22          C43   1.279       .  A
O23         Zr33   2.482       .  S
O23          C42   1.292       .  A
O24         Zr32   2.480       .  S
O24          C43   1.291       .  A
O25        Zr439   2.391       .  S
O25          C42   1.279       .  A
O26         Zr34   2.432       .  S
O26          C41   1.280       .  A
O27         Zr32   2.403       .  S
O27         Zr34   2.384       .  S
O28         Zr33   2.399       .  S
O28        Zr439   2.368       .  S
O28        Zr454   2.379       .  S
O28          H63   0.966       .  S
O29         Zr32   2.410       .  S
O29         Zr49   2.396       .  S
O29          H66   0.966       .  S
O30         Zr33   2.404       .  S
O30        Zr439   2.384       .  S
O30        Zr469   2.400       .  S
Zr31         O56   2.436       .  S
Zr31         O50   2.407       .  S
Zr31         O46   2.386       .  S
Zr31        O478   2.389   1_554  S
Zr31         O38   2.385       .  S
Zr31         O39   2.364       .  S
Zr31        O457   2.381   1_554  S
Zr31        O460   2.369   1_554  S
Zr32         O51   2.435       .  S
Zr32         O44   2.434       .  S
Zr32         O45   2.485       .  S
Zr32         O38   2.403       .  S
Zr32         O39   2.394       .  S
Zr33         O35   2.434       .  S
Zr33         O57   2.435       .  S
Zr33         O59   2.483       .  S
Zr33         O37   2.401       .  S
Zr33         O40   2.393       .  S
Zr34         O61   2.437       .  S
Zr34         O36   2.436       .  S
Zr34        O480   2.435   1_554  S
Zr34         O38   2.399       .  S
Zr34        O448   2.379   1_554  S
Zr34        O457   2.398   1_554  S
O35          H72   0.990       .  S
O36          H67   0.990       .  S
O36          H81   0.990       .  S
O37        Zr451   2.381       .  S
O37        Zr454   2.398       .  S
O38          H64   0.966       .  S
O39         Zr49   2.378       .  S
O40        Zr451   2.369       .  S
O40        Zr469   2.382       .  S
O40          H65   0.966       .  S
C41         C357   1.483       .  S
C42          C89   1.497       .  S
C43         C171   1.498       .  S
O44          H80   0.990       .  S
O45          C47   1.293       .  A
O46          C47   1.279       .  A
C47         C180   1.497       .  S
O48         Zr49   2.439       .  S
O48          H77   0.990       .  S
Zr49         O52   2.436       .  S
Zr49        O473   2.437   1_554  S
Zr49         O54   2.437       .  S
Zr49        O450   2.400   1_554  S
Zr49        O460   2.382   1_554  S
O50          C55   1.283       .  A
O51          H68   0.990       .  S
O51          H83   0.990       .  S
O52          H69   0.990       .  S
O53        Zr469   2.437       .  S
O53          H73   0.990       .  S
O53          H82   0.990       .  S
O54          C55   1.282       .  A
O56          H79   0.990       .  S
O56         H495   0.990       .  S
O57          H71   0.990       .  S
O57          H78   0.990       .  S
O58        Zr451   2.389       .  S
O58          C62   1.280       .  A
O59          C62   1.293       .  A
O60        Zr454   2.435       .  S
O60          H70   0.990       .  S
O61          H74   0.990       .  S
C62         C162   1.497       .  S
H75         O476   0.990       .  S
C85          C86   1.415       .  A
C85          C90   1.415       .  A
C85         C412   1.481       .  S
C86          C87   1.403       .  A
C86          H91   1.083       .  S
C87          C88   1.407       .  A
C87         C122   1.498       .  S
C88          C89   1.406       .  A
C88          H92   1.082       .  S
C89          C90   1.402       .  A
C90          H93   1.083       .  S
Zr94         O95   2.431       .  S
Zr94         O96   2.396       .  S
Zr94        O100   2.389       .  S
Zr94        O517   2.394   1_554  S
Zr94        O103   2.368       .  S
Zr94        O105   2.384       .  S
Zr94        O522   2.366   1_554  S
Zr94        O524   2.387   1_554  S
O95         H151   0.989       .  S
O95         H159   0.990       .  S
O96         C116   1.279       .  A
O97        Zr514   2.394       .  S
O97         C118   1.278       .  A
O98        Zr108   2.481       .  S
O98         C117   1.292       .  A
O99        Zr107   2.480       .  S
O99         C118   1.291       .  A
O100        C117   1.278       .  A
O101       Zr109   2.432   1_556  S
O101        C116   1.281   1_556  A
O102       Zr107   2.403       .  S
O102       Zr514   2.366       .  S
O102       Zr529   2.384       .  S
O103       Zr108   2.400       .  S
O103       Zr109   2.378       .  S
O103        H138   0.966       .  S
O104       Zr107   2.409       .  S
O104       Zr514   2.387       .  S
O104       Zr544   2.395       .  S
O104        H141   0.966       .  S
O105       Zr108   2.404       .  S
O105       Zr124   2.400       .  S
Zr106       O131   2.436       .  S
Zr106       O125   2.408       .  S
Zr106       O133   2.392       .  S
Zr106       O541   2.388   1_554  S
Zr106       O112   2.381       .  S
Zr106       O115   2.369       .  S
Zr106       O533   2.385   1_554  S
Zr106       O534   2.365   1_554  S
Zr107       O126   2.435       .  S
Zr107       O119   2.434       .  S
Zr107       O120   2.485       .  S
Zr107       O113   2.403       .  S
Zr107       O114   2.394       .  S
Zr108       O110   2.434       .  S
Zr108       O132   2.435       .  S
Zr108       O134   2.484       .  S
Zr108       O112   2.401       .  S
Zr108       O115   2.393       .  S
Zr109       O135   2.435       .  S
Zr109       O136   2.437       .  S
Zr109       O531   2.436   1_554  S
Zr109       O112   2.398       .  S
Zr109       O522   2.384   1_554  S
Zr109       O533   2.399   1_554  S
O110        H147   0.990       .  S
O111       Zr529   2.436       .  S
O111        H142   0.990       .  S
O111        H156   0.990       .  S
O113       Zr526   2.385       .  S
O113       Zr529   2.399       .  S
O113        H139   0.966       .  S
O114       Zr526   2.365       .  S
O114       Zr544   2.379       .  S
O115       Zr124   2.383       .  S
O115        H140   0.966       .  S
C117        C182   1.496       .  S
C118        C164   1.497       .  S
O119        H155   0.990       .  S
O120        C122   1.293       .  A
O121       Zr526   2.388       .  S
O121        C122   1.279       .  A
O123       Zr124   2.439       .  S
O123        H152   0.990       .  S
Zr124       O128   2.437       .  S
Zr124       O547   2.436   1_554  S
Zr124       O129   2.436       .  S
Zr124       O524   2.395   1_554  S
Zr124       O534   2.379   1_554  S
O125        C130   1.284       .  A
O126        H143   0.990       .  S
O126        H158   0.990       .  S
O127       Zr544   2.436       .  S
O127        H144   0.990       .  S
O128        H148   0.990       .  S
O128        H157   0.990       .  S
O129        C130   1.282       .  A
C130        C355   1.487       .  S
O131        H150   0.990       .  S
O131        H574   0.990   1_554  S
O132        H146   0.990       .  S
O132        H153   0.990       .  S
O133        C137   1.280       .  A
O134        C137   1.293       .  A
O135        H145   0.990       .  S
O136        H569   0.990   1_554  S
C137        C173   1.498       .  S
H149        O556   0.990       .  S
H154        O551   0.990       .  S
C160        C165   1.416   1_655  A
C160       C1001   1.416       .  A
C160        C397   1.484       .  S
C161        C162   1.401       .  A
C161       C1000   1.416       .  A
C161        H166   1.083       .  S
C162       C1003   1.406       .  A
C163        C164   1.406       .  A
C163       C1002   1.406   1_455  A
C163        H167   1.081       .  S
C164        C165   1.401       .  A
C165        H168   1.083       .  S
C169        C170   1.415       .  A
C169        C174   1.415       .  A
C169        C409   1.481       .  S
C170        C171   1.402       .  A
C170        H175   1.083       .  S
C171        C172   1.407       .  A
C172        C173   1.406       .  A
C172        H176   1.081       .  S
C173        C174   1.402       .  A
C174        H177   1.083       .  S
C178        C183   1.416       .  A
C178       C1019   1.416   1_455  A
C178        C400   1.484       .  S
C179        C180   1.402       .  A
C179       C1018   1.416       .  A
C179        H184   1.083       .  S
C180       C1021   1.407       .  A
C181        C182   1.406       .  A
C181       C1020   1.407   1_455  A
C181        H185   1.082       .  S
C182        C183   1.400       .  A
C183        H186   1.083       .  S
Zr187       O188   2.431       .  S
Zr187       O189   2.394       .  S
Zr187       O193   2.389       .  S
Zr187       O610   2.393   1_554  S
Zr187       O196   2.367       .  S
Zr187       O198   2.383       .  S
Zr187       O615   2.366   1_554  S
Zr187       O617   2.387   1_554  S
O188        H244   0.989       .  S
O188        H252   0.990       .  S
O189        C209   1.279       .  A
O190       Zr607   2.393       .  S
O190        C211   1.278       .  A
O191       Zr201   2.480       .  S
O191        C210   1.292       .  A
O192       Zr200   2.481       .  S
O192        C211   1.291       .  A
O193        C210   1.278       .  A
O194       Zr202   2.433       .  S
O194        C209   1.281       .  A
O195       Zr200   2.403       .  S
O195       Zr607   2.366       .  S
O195       Zr622   2.384       .  S
O196       Zr201   2.399       .  S
O196       Zr202   2.379       .  S
O196        H231   0.966       .  S
O197       Zr200   2.409       .  S
O197       Zr607   2.387       .  S
O197       Zr637   2.396       .  S
O197        H234   0.966       .  S
O198       Zr201   2.404       .  S
O198       Zr217   2.400       .  S
Zr199       O224   2.436       .  S
Zr199       O218   2.407       .  S
Zr199       O226   2.389       .  S
Zr199       O634   2.385   1_554  S
Zr199       O205   2.381       .  S
Zr199       O208   2.369       .  S
Zr199       O626   2.386   1_554  S
Zr199       O627   2.364   1_554  S
Zr200       O219   2.435       .  S
Zr200       O212   2.434       .  S
Zr200       O213   2.485       .  S
Zr200       O206   2.403       .  S
Zr200       O207   2.394       .  S
Zr201       O203   2.434       .  S
Zr201       O225   2.435       .  S
Zr201       O227   2.482       .  S
Zr201       O205   2.401       .  S
Zr201       O208   2.392       .  S
Zr202       O228   2.435       .  S
Zr202       O229   2.437       .  S
Zr202       O624   2.436   1_554  S
Zr202       O205   2.398       .  S
Zr202       O615   2.384   1_554  S
Zr202       O626   2.400   1_554  S
O203        H240   0.990       .  S
O204       Zr622   2.436       .  S
O204        H235   0.990       .  S
O204        H249   0.990       .  S
O206       Zr619   2.386       .  S
O206       Zr622   2.400       .  S
O206        H232   0.966       .  S
O207       Zr619   2.364       .  S
O207       Zr637   2.378       .  S
O208       Zr217   2.382       .  S
O208        H233   0.966       .  S
C210        C348   1.495       .  S
C211        C330   1.498       .  S
O212        H248   0.990       .  S
O213        C215   1.293       .  A
O214       Zr619   2.385       .  S
O214        C215   1.279       .  A
C215        C255   1.497       .  S
O216       Zr217   2.439       .  S
O216        H245   0.990       .  S
Zr217       O221   2.437       .  S
Zr217       O640   2.436   1_554  S
Zr217       O222   2.437       .  S
Zr217       O617   2.396   1_554  S
Zr217       O627   2.378   1_554  S
O218        C223   1.283       .  A
O219        H236   0.990       .  S
O219        H251   0.990       .  S
O220       Zr637   2.436       .  S
O220        H237   0.990       .  S
O221        H241   0.990       .  S
O221        H250   0.990       .  S
O222        C223   1.282       .  A
C223        C364   1.485       .  S
O224        H243   0.990       .  S
O224        H667   0.990   1_554  S
O225        H239   0.990       .  S
O225        H246   0.990       .  S
O226        C230   1.280       .  A
O227        C230   1.293       .  A
O228        H238   0.990       .  S
O229        H662   0.990   1_554  S
C230        C339   1.496       .  S
H242        O649   0.990       .  S
H247        O644   0.990       .  S
C253        C254   1.417       .  A
C253        C258   1.416       .  A
C253        C385   1.485       .  S
C254        C255   1.402       .  A
C254        H259   1.083       .  S
C255        C256   1.407       .  A
C256        C257   1.405       .  A
C256        H260   1.082       .  S
C257        C258   1.400       .  A
C257        C285   1.495       .  S
C258        H261   1.083       .  S
Zr262       O263   2.431       .  S
Zr262       O264   2.397       .  S
Zr262       O265   2.393       .  S
Zr262       O688   2.389   1_554  S
Zr262       O270   2.367       .  S
Zr262       O272   2.387       .  S
Zr262       O691   2.367   1_554  S
Zr262       O693   2.384   1_554  S
O263        H319   0.989       .  S
O263        H327   0.990       .  S
O264        C284   1.279       .  A
O265        C286   1.278       .  A
O266       Zr276   2.479       .  S
O266        C285   1.292       .  A
O267       Zr275   2.481       .  S
O267        C286   1.291       .  A
O268       Zr682   2.389       .  S
O268        C285   1.278       .  A
O269       Zr277   2.431       .  S
O269        C284   1.280       .  A
O270       Zr275   2.403       .  S
O270       Zr277   2.384       .  S
O271       Zr276   2.399       .  S
O271       Zr682   2.367       .  S
O271       Zr697   2.378       .  S
O271        H306   0.966       .  S
O272       Zr275   2.410       .  S
O272       Zr292   2.395       .  S
O272        H309   0.966       .  S
O273       Zr276   2.404       .  S
O273       Zr682   2.384       .  S
O273       Zr712   2.400       .  S
Zr274       O299   2.436       .  S
Zr274       O293   2.407       .  S
Zr274       O289   2.385       .  S
Zr274       O721   2.388   1_554  S
Zr274       O281   2.385       .  S
Zr274       O282   2.364       .  S
Zr274       O700   2.381   1_554  S
Zr274       O703   2.369   1_554  S
Zr275       O294   2.435       .  S
Zr275       O287   2.434       .  S
Zr275       O288   2.486       .  S
Zr275       O281   2.403       .  S
Zr275       O282   2.394       .  S
Zr276       O278   2.434       .  S
Zr276       O300   2.435       .  S
Zr276       O302   2.482       .  S
Zr276       O280   2.401       .  S
Zr276       O283   2.392       .  S
Zr277       O304   2.437       .  S
Zr277       O279   2.436       .  S
Zr277       O723   2.435   1_554  S
Zr277       O281   2.399       .  S
Zr277       O691   2.378   1_554  S
Zr277       O700   2.398   1_554  S
O278        H315   0.990       .  S
O279        H310   0.990       .  S
O279        H324   0.990       .  S
O280       Zr694   2.381       .  S
O280       Zr697   2.398       .  S
O281        H307   0.966       .  S
O282       Zr292   2.379       .  S
O283       Zr694   2.369       .  S
O283       Zr712   2.382       .  S
O283        H308   0.966       .  S
C284        C368   1.483       .  S
C286        C341   1.497       .  S
O287        H323   0.990       .  S
O288        C290   1.294       .  A
O289        C290   1.278       .  A
C290        C350   1.497       .  S
O291       Zr292   2.439       .  S
O291        H320   0.990       .  S
Zr292       O295   2.436       .  S
Zr292       O716   2.437   1_554  S
Zr292       O297   2.436       .  S
Zr292       O693   2.400   1_554  S
Zr292       O703   2.382   1_554  S
O293        C298   1.283       .  A
O294        H311   0.990       .  S
O294        H326   0.990       .  S
O295        H312   0.990       .  S
O296       Zr712   2.437       .  S
O296        H316   0.990       .  S
O296        H325   0.990       .  S
O297        C298   1.282       .  A
O299        H318   0.990       .  S
O299        H322   0.990       .  S
O300        H314   0.990       .  S
O300        H321   0.990       .  S
O301       Zr694   2.388       .  S
O301        C305   1.279       .  A
O302        C305   1.293       .  A
O303       Zr697   2.435       .  S
O303        H313   0.990       .  S
O304        H317   0.990       .  S
C305        C332   1.496       .  S
C328        C333   1.415       .  A
C328       C1169   1.416   1_455  A
C328        C376   1.484       .  S
C329        C330   1.402       .  A
C329       C1168   1.416       .  A
C329        H334   1.083       .  S
C330       C1171   1.407       .  A
C331        C332   1.405   1_655  A
C331       C1170   1.407       .  A
C331        H335   1.081       .  S
C332        C333   1.400       .  A
C333        H336   1.083       .  S
C337        C338   1.416       .  A
C337        C342   1.417       .  A
C337        C388   1.486       .  S
C338        C339   1.401       .  A
C338        H343   1.083       .  S
C339        C340   1.405       .  A
C340        C341   1.406       .  A
C340        H344   1.081       .  S
C341        C342   1.401       .  A
C342        H345   1.083       .  S
C346        C351   1.416   1_655  A
C346       C1187   1.416       .  A
C346        C373   1.484       .  S
C347        C348   1.400       .  A
C347       C1186   1.416       .  A
C347        H352   1.083       .  S
C348       C1189   1.406       .  A
C349        C350   1.407   1_655  A
C349       C1188   1.406       .  A
C349        H353   1.082       .  S
C350        C351   1.401       .  A
C351        H354   1.083       .  S
C355        C356   1.390       .  A
C355        C360   1.404       .  A
C356        C357   1.392       .  A
C356        H361   1.083       .  S
C357        C358   1.401       .  A
C358        C359   1.425   1_565  A
C358        H362   1.075   1_565  S
C359        C360   1.428   1_545  A
C359        C366   1.519       .  S
C360        H363   1.076       .  S
C364        C365   1.404       .  A
C364        C369   1.390       .  A
C365        C366   1.428       .  A
C365        H370   1.076       .  S
C366        C367   1.425       .  A
C367        C368   1.402       .  A
C367        H371   1.075       .  S
C368        C369   1.392       .  A
C369        H372   1.083       .  S
C373        C374   1.404   1_655  A
C373       C1218   1.414       .  A
C374        C375   1.399       .  A
C374        H379   1.085       .  S
C375        C376   1.413       .  A
C375        C382   1.444       .  S
C376       C1217   1.404   1_455  A
C377        C378   1.400       .  A
C377       C1216   1.404       .  A
C377        H380   1.085       .  S
C378       C1213   1.414       .  A
C378        C381   1.444       .  S
C381        N383   1.157       .  T
C382        N384   1.157       .  T
C385        C386   1.405       .  A
C385        C390   1.413       .  A
C386        C387   1.401       .  A
C386        H391   1.085       .  S
C387        C388   1.414       .  A
C387        C394   1.444       .  S
C388        C389   1.404       .  A
C389        C390   1.399       .  A
C389        H392   1.085       .  S
C390        C393   1.444       .  S
C393        N395   1.157       .  T
C394        N396   1.157       .  T
C397        C398   1.404   1_655  A
C397       C1242   1.413       .  A
C398        C399   1.399       .  A
C398        H403   1.085       .  S
C399        C400   1.413       .  A
C399        C406   1.444       .  S
C400       C1241   1.404   1_455  A
C401        C402   1.401       .  A
C401       C1240   1.404       .  A
C401        H404   1.085       .  S
C402       C1237   1.413       .  A
C402        C405   1.444       .  S
C405        N407   1.157       .  T
C406        N408   1.157       .  T
C409        C410   1.403       .  A
C409        C414   1.412       .  A
C410        C411   1.400       .  A
C410        H415   1.085       .  S
C411        C412   1.411       .  A
C411        C418   1.444       .  S
C412        C413   1.404       .  A
C413        C414   1.402       .  A
C413        H416   1.085       .  S
C414        C417   1.444       .  S
C417        N419   1.157       .  T
C418        N420   1.157       .  T
C421        C426   1.392       .  A
C421        C536   1.483       .  S
C422       C1263   1.425   1_556  A
C422        H427   1.075   1_556  S
C423       C1262   1.425   1_554  A
C423        C424   1.428       .  A
C424        H428   1.076       .  S
C425       C1266   1.390       .  A
C425        C475   1.486       .  S
C426       C1265   1.390   1_455  A
C426        H429   1.083       .  S
C430        C431   1.404       .  A
C430       C1275   1.390   1_455  A
C430        C718   1.486       .  S
C431       C1272   1.428   1_455  A
C431        H436   1.076       .  S
C432       C1271   1.428       .  A
C432        C433   1.425       .  A
C433        C434   1.401       .  A
C433        H437   1.075       .  S
C434        C435   1.392       .  A
C434        C629   1.483       .  S
C435       C1270   1.390       .  A
C435        H438   1.083       .  S
Zr439       O440   2.430       .  S
Zr439       O441   2.394       .  S
Zr439       O442   2.396       .  S
Zr439       O447   2.366       .  S
Zr439       O449   2.387       .  S
O440        H496   0.989       .  S
O440        H504   0.990       .  S
O441        C461   1.279       .  A
O442        C463   1.279       .  A
O443       Zr453   2.482       .  S
O443        C462   1.292       .  A
O444       Zr452   2.480       .  S
O444        C463   1.291       .  A
O445        C462   1.279       .  A
O446       Zr454   2.432       .  S
O446        C461   1.280       .  A
O447       Zr452   2.403       .  S
O447       Zr454   2.384       .  S
O448       Zr453   2.399       .  S
O448        H483   0.966       .  S
O449       Zr452   2.410       .  S
O449       Zr469   2.396       .  S
O449        H486   0.966       .  S
O450       Zr453   2.404       .  S
Zr451       O476   2.436       .  S
Zr451       O470   2.407       .  S
Zr451       O466   2.386       .  S
Zr451       O458   2.385       .  S
Zr451       O459   2.364       .  S
Zr452       O471   2.435       .  S
Zr452       O464   2.434       .  S
Zr452       O465   2.485       .  S
Zr452       O458   2.403       .  S
Zr452       O459   2.394       .  S
Zr453       O455   2.434       .  S
Zr453       O477   2.435       .  S
Zr453       O479   2.483       .  S
Zr453       O457   2.401       .  S
Zr453       O460   2.393       .  S
Zr454       O481   2.437       .  S
Zr454       O456   2.436       .  S
Zr454       O458   2.399       .  S
O455        H492   0.990       .  S
O456        H487   0.990       .  S
O456        H501   0.990       .  S
O458        H484   0.966       .  S
O459       Zr469   2.378       .  S
O460        H485   0.966       .  S
C461        C777   1.483       .  S
C462        C509   1.497       .  S
C463        C591   1.498       .  S
O464        H500   0.990       .  S
O465        C467   1.293       .  A
O466        C467   1.279       .  A
C467        C600   1.497       .  S
O468       Zr469   2.439       .  S
O468        H497   0.990       .  S
Zr469       O472   2.436       .  S
Zr469       O474   2.437       .  S
O470        C475   1.283       .  A
O471        H488   0.990       .  S
O471        H503   0.990       .  S
O472        H489   0.990       .  S
O473        H493   0.990       .  S
O473        H502   0.990       .  S
O474        C475   1.282       .  A
O476        H499   0.990       .  S
O477        H491   0.990       .  S
O477        H498   0.990       .  S
O478        C482   1.280       .  A
O479        C482   1.293       .  A
O480        H490   0.990       .  S
O481        H494   0.990       .  S
C482        C582   1.497       .  S
C505        C506   1.415       .  A
C505        C510   1.415       .  A
C505        C832   1.481       .  S
C506        C507   1.403       .  A
C506        H511   1.083       .  S
C507        C508   1.407       .  A
C507        C542   1.498       .  S
C508        C509   1.406       .  A
C508        H512   1.082       .  S
C509        C510   1.402       .  A
C510        H513   1.083       .  S
Zr514       O515   2.431       .  S
Zr514       O516   2.396       .  S
Zr514       O520   2.389       .  S
Zr514       O523   2.368       .  S
Zr514       O525   2.384       .  S
O515        H571   0.989       .  S
O515        H579   0.990       .  S
O516        C536   1.279       .  A
O517        C538   1.278       .  A
O518       Zr528   2.481       .  S
O518        C537   1.292       .  A
O519       Zr527   2.480       .  S
O519        C538   1.291       .  A
O520        C537   1.278       .  A
O521       Zr529   2.432       .  S
O521        C536   1.281       .  A
O522       Zr527   2.403       .  S
O523       Zr528   2.400       .  S
O523       Zr529   2.378       .  S
O523        H558   0.966       .  S
O524       Zr527   2.409       .  S
O524        H561   0.966       .  S
O525       Zr528   2.404       .  S
O525       Zr544   2.400       .  S
Zr526       O551   2.436       .  S
Zr526       O545   2.408       .  S
Zr526       O553   2.392       .  S
Zr526       O532   2.381       .  S
Zr526       O535   2.369       .  S
Zr527       O546   2.435       .  S
Zr527       O539   2.434       .  S
Zr527       O540   2.485       .  S
Zr527       O533   2.403       .  S
Zr527       O534   2.394       .  S
Zr528       O530   2.434       .  S
Zr528       O552   2.435       .  S
Zr528       O554   2.484       .  S
Zr528       O532   2.401       .  S
Zr528       O535   2.393       .  S
Zr529       O555   2.435       .  S
Zr529       O556   2.437       .  S
Zr529       O532   2.398       .  S
O530        H567   0.990       .  S
O531        H562   0.990       .  S
O531        H576   0.990       .  S
O533        H559   0.966       .  S
O535       Zr544   2.383       .  S
O535        H560   0.966       .  S
C537        C602   1.496       .  S
C538        C584   1.497       .  S
O539        H575   0.990       .  S
O540        C542   1.293       .  A
O541        C542   1.279       .  A
O543       Zr544   2.439       .  S
O543        H572   0.990       .  S
Zr544       O548   2.437       .  S
Zr544       O549   2.436       .  S
O545        C550   1.284       .  A
O546        H563   0.990       .  S
O546        H578   0.990       .  S
O547        H564   0.990       .  S
O548        H568   0.990       .  S
O548        H577   0.990       .  S
O549        C550   1.282       .  A
C550        C775   1.487       .  S
O551        H570   0.990       .  S
O552        H566   0.990       .  S
O552        H573   0.990       .  S
O553        C557   1.280       .  A
O554        C557   1.293       .  A
O555        H565   0.990       .  S
C557        C593   1.498       .  S
C580       C1421   1.416       .  A
C580        C585   1.416   1_655  A
C580        C817   1.484       .  S
C581       C1420   1.416       .  A
C581        C582   1.401       .  A
C581        H586   1.083       .  S
C582       C1423   1.406       .  A
C583       C1422   1.406   1_455  A
C583        C584   1.406       .  A
C583        H587   1.081       .  S
C584        C585   1.401       .  A
C585        H588   1.083       .  S
C589        C590   1.415       .  A
C589        C594   1.415       .  A
C589        C829   1.481       .  S
C590        C591   1.402       .  A
C590        H595   1.083       .  S
C591        C592   1.407       .  A
C592        C593   1.406       .  A
C592        H596   1.081       .  S
C593        C594   1.402       .  A
C594        H597   1.083       .  S
C598       C1439   1.416   1_455  A
C598        C603   1.416       .  A
C598        C820   1.484       .  S
C599       C1438   1.416       .  A
C599        C600   1.402       .  A
C599        H604   1.083       .  S
C600       C1441   1.407       .  A
C601       C1440   1.407   1_455  A
C601        C602   1.406       .  A
C601        H605   1.082       .  S
C602        C603   1.400       .  A
C603        H606   1.083       .  S
Zr607       O608   2.431       .  S
Zr607       O609   2.394       .  S
Zr607       O613   2.389       .  S
Zr607       O616   2.367       .  S
Zr607       O618   2.383       .  S
O608        H664   0.989       .  S
O608        H672   0.990       .  S
O609        C629   1.279       .  A
O610        C631   1.278       .  A
O611       Zr621   2.480       .  S
O611        C630   1.292       .  A
O612       Zr620   2.481       .  S
O612        C631   1.291       .  A
O613        C630   1.278       .  A
O614       Zr622   2.433       .  S
O614        C629   1.281       .  A
O615       Zr620   2.403       .  S
O616       Zr621   2.399       .  S
O616       Zr622   2.379       .  S
O616        H651   0.966       .  S
O617       Zr620   2.409       .  S
O617        H654   0.966       .  S
O618       Zr621   2.404       .  S
O618       Zr637   2.400       .  S
Zr619       O644   2.436       .  S
Zr619       O638   2.407       .  S
Zr619       O646   2.389       .  S
Zr619       O625   2.381       .  S
Zr619       O628   2.369       .  S
Zr620       O639   2.435       .  S
Zr620       O632   2.434       .  S
Zr620       O633   2.485       .  S
Zr620       O626   2.403       .  S
Zr620       O627   2.394       .  S
Zr621       O623   2.434       .  S
Zr621       O645   2.435       .  S
Zr621       O647   2.482       .  S
Zr621       O625   2.401       .  S
Zr621       O628   2.392       .  S
Zr622       O648   2.435       .  S
Zr622       O649   2.437       .  S
Zr622       O625   2.398       .  S
O623        H660   0.990       .  S
O624        H655   0.990       .  S
O624        H669   0.990       .  S
O626        H652   0.966       .  S
O628       Zr637   2.382       .  S
O628        H653   0.966       .  S
C630        C768   1.495       .  S
C631        C750   1.498       .  S
O632        H668   0.990       .  S
O633        C635   1.293       .  A
O634        C635   1.279       .  A
C635        C675   1.497       .  S
O636       Zr637   2.439       .  S
O636        H665   0.990       .  S
Zr637       O641   2.437       .  S
Zr637       O642   2.437       .  S
O638        C643   1.283       .  A
O639        H656   0.990       .  S
O639        H671   0.990       .  S
O640        H657   0.990       .  S
O641        H661   0.990       .  S
O641        H670   0.990       .  S
O642        C643   1.282       .  A
C643        C784   1.485       .  S
O644        H663   0.990       .  S
O645        H659   0.990       .  S
O645        H666   0.990       .  S
O646        C650   1.280       .  A
O647        C650   1.293       .  A
O648        H658   0.990       .  S
C650        C759   1.496       .  S
C673        C674   1.417       .  A
C673        C678   1.416       .  A
C673        C805   1.485       .  S
C674        C675   1.402       .  A
C674        H679   1.083       .  S
C675        C676   1.407       .  A
C676        C677   1.405       .  A
C676        H680   1.082       .  S
C677        C678   1.400       .  A
C677        C705   1.495       .  S
C678        H681   1.083       .  S
Zr682       O683   2.431       .  S
Zr682       O684   2.397       .  S
Zr682       O685   2.393       .  S
Zr682       O690   2.367       .  S
Zr682       O692   2.387       .  S
O683        H739   0.989       .  S
O683        H747   0.990       .  S
O684        C704   1.279       .  A
O685        C706   1.278       .  A
O686       Zr696   2.479       .  S
O686        C705   1.292       .  A
O687       Zr695   2.481       .  S
O687        C706   1.291       .  A
O688        C705   1.278       .  A
O689       Zr697   2.431       .  S
O689        C704   1.280       .  A
O690       Zr695   2.403       .  S
O690       Zr697   2.384       .  S
O691       Zr696   2.399       .  S
O691        H726   0.966       .  S
O692       Zr695   2.410       .  S
O692       Zr712   2.395       .  S
O692        H729   0.966       .  S
O693       Zr696   2.404       .  S
Zr694       O719   2.436       .  S
Zr694       O713   2.407       .  S
Zr694       O709   2.385       .  S
Zr694       O701   2.385       .  S
Zr694       O702   2.364       .  S
Zr695       O714   2.435       .  S
Zr695       O707   2.434       .  S
Zr695       O708   2.486       .  S
Zr695       O701   2.403       .  S
Zr695       O702   2.394       .  S
Zr696       O698   2.434       .  S
Zr696       O720   2.435       .  S
Zr696       O722   2.482       .  S
Zr696       O700   2.401       .  S
Zr696       O703   2.392       .  S
Zr697       O724   2.437       .  S
Zr697       O699   2.436       .  S
Zr697       O701   2.399       .  S
O698        H735   0.990       .  S
O699        H730   0.990       .  S
O699        H744   0.990       .  S
O701        H727   0.966       .  S
O702       Zr712   2.379       .  S
O703        H728   0.966       .  S
C704        C788   1.483       .  S
C706        C761   1.497       .  S
O707        H743   0.990       .  S
O708        C710   1.294       .  A
O709        C710   1.278       .  A
C710        C770   1.497       .  S
O711       Zr712   2.439       .  S
O711        H740   0.990       .  S
Zr712       O715   2.436       .  S
Zr712       O717   2.436       .  S
O713        C718   1.283       .  A
O714        H731   0.990       .  S
O714        H746   0.990       .  S
O715        H732   0.990       .  S
O716        H736   0.990       .  S
O716        H745   0.990       .  S
O717        C718   1.282       .  A
O719        H738   0.990       .  S
O719        H742   0.990       .  S
O720        H734   0.990       .  S
O720        H741   0.990       .  S
O721        C725   1.279       .  A
O722        C725   1.293       .  A
O723        H733   0.990       .  S
O724        H737   0.990       .  S
C725        C752   1.496       .  S
C748       C1589   1.416   1_455  A
C748        C753   1.415       .  A
C748        C796   1.484       .  S
C749       C1588   1.416       .  A
C749        C750   1.402       .  A
C749        H754   1.083       .  S
C750       C1591   1.407       .  A
C751       C1590   1.407       .  A
C751        C752   1.405   1_655  A
C751        H755   1.081       .  S
C752        C753   1.400       .  A
C753        H756   1.083       .  S
C757        C758   1.416       .  A
C757        C762   1.417       .  A
C757        C808   1.486       .  S
C758        C759   1.401       .  A
C758        H763   1.083       .  S
C759        C760   1.405       .  A
C760        C761   1.406       .  A
C760        H764   1.081       .  S
C761        C762   1.401       .  A
C762        H765   1.083       .  S
C766       C1607   1.416       .  A
C766        C771   1.416   1_655  A
C766        C793   1.484       .  S
C767       C1606   1.416       .  A
C767        C768   1.400       .  A
C767        H772   1.083       .  S
C768       C1609   1.406       .  A
C769       C1608   1.406       .  A
C769        C770   1.407   1_655  A
C769        H773   1.082       .  S
C770        C771   1.401       .  A
C771        H774   1.083       .  S
C775        C776   1.390       .  A
C775        C780   1.404       .  A
C776        C777   1.392       .  A
C776        H781   1.083       .  S
C777        C778   1.401       .  A
C778        C779   1.425   1_565  A
C778        H782   1.075   1_565  S
C779        C780   1.428   1_545  A
C779        C786   1.519       .  S
C780        H783   1.076       .  S
C784        C785   1.404       .  A
C784        C789   1.390       .  A
C785        C786   1.428       .  A
C785        H790   1.076       .  S
C786        C787   1.425       .  A
C787        C788   1.402       .  A
C787        H791   1.075       .  S
C788        C789   1.392       .  A
C789        H792   1.083       .  S
C793        C794   1.404   1_655  A
C793       C1638   1.414       .  A
C794        C795   1.399       .  A
C794        H799   1.085       .  S
C795        C796   1.413       .  A
C795        C802   1.444       .  S
C796       C1637   1.404   1_455  A
C797       C1636   1.404       .  A
C797        C798   1.400       .  A
C797        H800   1.085       .  S
C798       C1633   1.414       .  A
C798        C801   1.444       .  S
C801        N803   1.157       .  T
C802        N804   1.157       .  T
C805        C806   1.405       .  A
C805        C810   1.413       .  A
C806        C807   1.401       .  A
C806        H811   1.085       .  S
C807        C808   1.414       .  A
C807        C814   1.444       .  S
C808        C809   1.404       .  A
C809        C810   1.399       .  A
C809        H812   1.085       .  S
C810        C813   1.444       .  S
C813        N815   1.157       .  T
C814        N816   1.157       .  T
C817        C818   1.404   1_655  A
C817       C1662   1.413       .  A
C818        C819   1.399       .  A
C818        H823   1.085       .  S
C819        C820   1.413       .  A
C819        C826   1.444       .  S
C820       C1661   1.404   1_455  A
C821       C1660   1.404       .  A
C821        C822   1.401       .  A
C821        H824   1.085       .  S
C822       C1657   1.413       .  A
C822        C825   1.444       .  S
C825        N827   1.157       .  T
C826        N828   1.157       .  T
C829        C830   1.403       .  A
C829        C834   1.412       .  A
C830        C831   1.400       .  A
C830        H835   1.085       .  S
C831        C832   1.411       .  A
C831        C838   1.444       .  S
C832        C833   1.404       .  A
C833        C834   1.402       .  A
C833        H836   1.085       .  S
C834        C837   1.444       .  S
C837        N839   1.157       .  T
C838        N840   1.157       .  T
C841       C1262   1.401       .  A
C841        C846   1.392       .  A
C841        C956   1.483   1_556  S
C842       C1261   1.401       .  A
C842        H847   1.075       .  S
C843        C844   1.428   1_455  A
C843       C1272   1.519   1_455  S
C844       C1265   1.404       .  A
C844        H848   1.076       .  S
C845       C1264   1.404   1_556  A
C845        C895   1.486   1_556  S
C846        H849   1.083       .  S
C850        C851   1.404       .  A
C850       C1138   1.486       .  S
C851        H856   1.076       .  S
C852        C853   1.425       .  A
C852       C1263   1.519   1_655  S
C853        C854   1.401       .  A
C853        H857   1.075       .  S
C854        C855   1.392   1_554  A
C854       C1049   1.483       .  S
C855        H858   1.083       .  S
Zr859       O860   2.430       .  S
Zr859       O861   2.394       .  S
Zr859       O862   2.396       .  S
Zr859      O1285   2.391   1_554  S
Zr859       O867   2.366       .  S
Zr859      O1288   2.368   1_554  S
Zr859       O869   2.387       .  S
Zr859      O1290   2.384   1_554  S
O860        H916   0.989       .  S
O860        H924   0.990       .  S
O861        C881   1.279       .  A
O862        C883   1.279       .  A
O863       Zr873   2.482       .  S
O863        C882   1.292       .  A
O864       Zr872   2.480       .  S
O864        C883   1.291       .  A
O865      Zr1279   2.391       .  S
O865        C882   1.279       .  A
O866       Zr874   2.432       .  S
O866        C881   1.280       .  A
O867       Zr872   2.403       .  S
O867       Zr874   2.384       .  S
O868      Zr1279   2.368       .  S
O868       Zr873   2.399       .  S
O868      Zr1294   2.379       .  S
O868        H903   0.966       .  S
O869       Zr872   2.410       .  S
O869       Zr889   2.396       .  S
O869        H906   0.966       .  S
O870      Zr1279   2.384       .  S
O870       Zr873   2.404       .  S
O870      Zr1309   2.400       .  S
Zr871       O896   2.436       .  S
Zr871       O890   2.407       .  S
Zr871      O1318   2.389   1_554  S
Zr871       O886   2.386       .  S
Zr871      O1297   2.381   1_554  S
Zr871       O878   2.385       .  S
Zr871       O879   2.364       .  S
Zr871      O1300   2.369   1_554  S
Zr872       O891   2.435       .  S
Zr872       O884   2.434       .  S
Zr872       O885   2.485       .  S
Zr872       O878   2.403       .  S
Zr872       O879   2.394       .  S
Zr873       O875   2.434       .  S
Zr873       O897   2.435       .  S
Zr873       O899   2.483       .  S
Zr873       O877   2.401       .  S
Zr873       O880   2.393       .  S
Zr874      O1320   2.435   1_554  S
Zr874       O901   2.437       .  S
Zr874       O876   2.436       .  S
Zr874      O1288   2.379   1_554  S
Zr874      O1297   2.398   1_554  S
Zr874       O878   2.399       .  S
O875        H912   0.990       .  S
O876        H907   0.990       .  S
O876        H921   0.990       .  S
O877      Zr1291   2.381       .  S
O877      Zr1294   2.398       .  S
O878        H904   0.966       .  S
O879       Zr889   2.378       .  S
O880      Zr1291   2.369       .  S
O880      Zr1309   2.382       .  S
O880        H905   0.966       .  S
C881       C1197   1.483       .  S
C882        C929   1.497       .  S
C883       C1011   1.498       .  S
O884        H920   0.990       .  S
O885        C887   1.293       .  A
O886        C887   1.279       .  A
C887       C1020   1.497       .  S
O888       Zr889   2.439       .  S
O888        H917   0.990       .  S
Zr889       O892   2.436       .  S
Zr889      O1313   2.437   1_554  S
Zr889       O894   2.437       .  S
Zr889      O1290   2.400   1_554  S
Zr889      O1300   2.382   1_554  S
O890        C895   1.283       .  A
O891        H908   0.990       .  S
O891        H923   0.990       .  S
O892        H909   0.990       .  S
O893      Zr1309   2.437       .  S
O893        H913   0.990       .  S
O893        H922   0.990       .  S
O894        C895   1.282       .  A
O896       H1335   0.990       .  S
O896        H919   0.990       .  S
O897        H911   0.990       .  S
O897        H918   0.990       .  S
O898      Zr1291   2.389       .  S
O898        C902   1.280       .  A
O899        C902   1.293       .  A
O900      Zr1294   2.435       .  S
O900        H910   0.990       .  S
O901        H914   0.990       .  S
C902       C1002   1.497       .  S
H915       O1316   0.990       .  S
C925        C926   1.415       .  A
C925        C930   1.415       .  A
C925       C1252   1.481       .  S
C926        C927   1.403       .  A
C926        H931   1.083       .  S
C927        C928   1.407       .  A
C927        C962   1.498       .  S
C928        C929   1.406       .  A
C928        H932   1.082       .  S
C929        C930   1.402       .  A
C930        H933   1.083       .  S
Zr934       O935   2.431       .  S
Zr934       O936   2.396       .  S
Zr934      O1357   2.394   1_554  S
Zr934       O940   2.389       .  S
Zr934      O1362   2.366   1_554  S
Zr934       O943   2.368       .  S
Zr934      O1364   2.387   1_554  S
Zr934       O945   2.384       .  S
O935        H991   0.989       .  S
O935        H999   0.990       .  S
O936        C956   1.279       .  A
O937      Zr1354   2.394       .  S
O937        C958   1.278       .  A
O938       Zr948   2.481       .  S
O938        C957   1.292       .  A
O939       Zr947   2.480       .  S
O939        C958   1.291       .  A
O940        C957   1.278       .  A
O941       Zr949   2.432   1_556  S
O941        C956   1.281   1_556  A
O942      Zr1354   2.366       .  S
O942       Zr947   2.403       .  S
O942      Zr1369   2.384       .  S
O943       Zr948   2.400       .  S
O943       Zr949   2.378       .  S
O943        H978   0.966       .  S
O944      Zr1354   2.387       .  S
O944       Zr947   2.409       .  S
O944      Zr1384   2.395       .  S
O944        H981   0.966       .  S
O945       Zr948   2.404       .  S
O945       Zr964   2.400       .  S
Zr946       O971   2.436       .  S
Zr946       O965   2.408       .  S
Zr946       O973   2.392       .  S
Zr946      O1381   2.388   1_554  S
Zr946       O952   2.381       .  S
Zr946      O1373   2.385   1_554  S
Zr946      O1374   2.365   1_554  S
Zr946       O955   2.369       .  S
Zr947       O966   2.435       .  S
Zr947       O959   2.434       .  S
Zr947       O960   2.485       .  S
Zr947       O953   2.403       .  S
Zr947       O954   2.394       .  S
Zr948       O950   2.434       .  S
Zr948       O972   2.435       .  S
Zr948       O974   2.484       .  S
Zr948       O952   2.401       .  S
Zr948       O955   2.393       .  S
Zr949       O975   2.435       .  S
Zr949       O976   2.437       .  S
Zr949      O1371   2.436   1_554  S
Zr949      O1362   2.384   1_554  S
Zr949       O952   2.398       .  S
Zr949      O1373   2.399   1_554  S
O950        H987   0.990       .  S
O951      Zr1369   2.436       .  S
O951        H982   0.990       .  S
O951        H996   0.990       .  S
O953      Zr1366   2.385       .  S
O953      Zr1369   2.399       .  S
O953        H979   0.966       .  S
O954      Zr1366   2.365       .  S
O954      Zr1384   2.379       .  S
O955       Zr964   2.383       .  S
O955        H980   0.966       .  S
C957       C1022   1.496       .  S
C958       C1004   1.497       .  S
O959        H995   0.990       .  S
O960        C962   1.293       .  A
O961      Zr1366   2.388       .  S
O961        C962   1.279       .  A
O963       Zr964   2.439       .  S
O963        H992   0.990       .  S
Zr964      O1387   2.436   1_554  S
Zr964       O968   2.437       .  S
Zr964       O969   2.436       .  S
Zr964      O1364   2.395   1_554  S
Zr964      O1374   2.379   1_554  S
O965        C970   1.284       .  A
O966        H983   0.990       .  S
O966        H998   0.990       .  S
O967      Zr1384   2.436       .  S
O967        H984   0.990       .  S
O968        H988   0.990       .  S
O968        H997   0.990       .  S
O969        C970   1.282       .  A
C970       C1195   1.487       .  S
O971        H990   0.990       .  S
O971       H1414   0.990   1_554  S
O972        H986   0.990       .  S
O972        H993   0.990       .  S
O973        C977   1.280       .  A
O974        C977   1.293       .  A
O975        H985   0.990       .  S
O976       H1409   0.990   1_554  S
C977       C1013   1.498       .  S
H989       O1396   0.990       .  S
H994       O1391   0.990       .  S
C1000      C1005   1.416       .  A
C1000      C1237   1.484       .  S
C1001      C1002   1.401       .  A
C1001      H1006   1.083       .  S
C1003      C1004   1.406       .  A
C1003      H1007   1.081       .  S
C1004      C1005   1.401       .  A
C1005      H1008   1.083       .  S
C1009      C1010   1.415       .  A
C1009      C1014   1.415       .  A
C1009      C1249   1.481       .  S
C1010      C1011   1.402       .  A
C1010      H1015   1.083       .  S
C1011      C1012   1.407       .  A
C1012      C1013   1.406       .  A
C1012      H1016   1.081       .  S
C1013      C1014   1.402       .  A
C1014      H1017   1.083       .  S
C1018      C1023   1.416       .  A
C1018      C1240   1.484       .  S
C1019      C1020   1.402       .  A
C1019      H1024   1.083       .  S
C1021      C1022   1.406       .  A
C1021      H1025   1.082       .  S
C1022      C1023   1.400       .  A
C1023      H1026   1.083       .  S
Zr1027     O1028   2.431       .  S
Zr1027     O1029   2.394       .  S
Zr1027     O1450   2.393   1_554  S
Zr1027     O1033   2.389       .  S
Zr1027     O1455   2.366   1_554  S
Zr1027     O1036   2.367       .  S
Zr1027     O1457   2.387   1_554  S
Zr1027     O1038   2.383       .  S
O1028      H1084   0.989       .  S
O1028      H1092   0.990       .  S
O1029      C1049   1.279       .  A
O1030     Zr1447   2.393       .  S
O1030      C1051   1.278       .  A
O1031     Zr1041   2.480       .  S
O1031      C1050   1.292       .  A
O1032     Zr1040   2.481       .  S
O1032      C1051   1.291       .  A
O1033      C1050   1.278       .  A
O1034     Zr1042   2.433       .  S
O1034      C1049   1.281       .  A
O1035     Zr1447   2.366       .  S
O1035     Zr1040   2.403       .  S
O1035     Zr1462   2.384       .  S
O1036     Zr1041   2.399       .  S
O1036     Zr1042   2.379       .  S
O1036      H1071   0.966       .  S
O1037     Zr1447   2.387       .  S
O1037     Zr1040   2.409       .  S
O1037     Zr1477   2.396       .  S
O1037      H1074   0.966       .  S
O1038     Zr1041   2.404       .  S
O1038     Zr1057   2.400       .  S
Zr1039     O1064   2.436       .  S
Zr1039     O1058   2.407       .  S
Zr1039     O1066   2.389       .  S
Zr1039     O1474   2.385   1_554  S
Zr1039     O1045   2.381       .  S
Zr1039     O1466   2.386   1_554  S
Zr1039     O1467   2.364   1_554  S
Zr1039     O1048   2.369       .  S
Zr1040     O1059   2.435       .  S
Zr1040     O1052   2.434       .  S
Zr1040     O1053   2.485       .  S
Zr1040     O1046   2.403       .  S
Zr1040     O1047   2.394       .  S
Zr1041     O1043   2.434       .  S
Zr1041     O1065   2.435       .  S
Zr1041     O1067   2.482       .  S
Zr1041     O1045   2.401       .  S
Zr1041     O1048   2.392       .  S
Zr1042     O1068   2.435       .  S
Zr1042     O1069   2.437       .  S
Zr1042     O1464   2.436   1_554  S
Zr1042     O1455   2.384   1_554  S
Zr1042     O1045   2.398       .  S
Zr1042     O1466   2.400   1_554  S
O1043      H1080   0.990       .  S
O1044     Zr1462   2.436       .  S
O1044      H1075   0.990       .  S
O1044      H1089   0.990       .  S
O1046     Zr1459   2.386       .  S
O1046     Zr1462   2.400       .  S
O1046      H1072   0.966       .  S
O1047     Zr1459   2.364       .  S
O1047     Zr1477   2.378       .  S
O1048     Zr1057   2.382       .  S
O1048      H1073   0.966       .  S
C1050      C1188   1.495       .  S
C1051      C1170   1.498       .  S
O1052      H1088   0.990       .  S
O1053      C1055   1.293       .  A
O1054     Zr1459   2.385       .  S
O1054      C1055   1.279       .  A
C1055      C1095   1.497       .  S
O1056     Zr1057   2.439       .  S
O1056      H1085   0.990       .  S
Zr1057     O1480   2.436   1_554  S
Zr1057     O1061   2.437       .  S
Zr1057     O1062   2.437       .  S
Zr1057     O1457   2.396   1_554  S
Zr1057     O1467   2.378   1_554  S
O1058      C1063   1.283       .  A
O1059      H1076   0.990       .  S
O1059      H1091   0.990       .  S
O1060     Zr1477   2.436       .  S
O1060      H1077   0.990       .  S
O1061      H1081   0.990       .  S
O1061      H1090   0.990       .  S
O1062      C1063   1.282       .  A
C1063      C1204   1.485       .  S
O1064      H1083   0.990       .  S
O1064      H1507   0.990   1_554  S
O1065      H1079   0.990       .  S
O1065      H1086   0.990       .  S
O1066      C1070   1.280       .  A
O1067      C1070   1.293       .  A
O1068      H1078   0.990       .  S
O1069      H1502   0.990   1_554  S
C1070      C1179   1.496       .  S
H1082      O1489   0.990       .  S
H1087      O1484   0.990       .  S
C1093      C1094   1.417       .  A
C1093      C1098   1.416       .  A
C1093      C1225   1.485       .  S
C1094      C1095   1.402       .  A
C1094      H1099   1.083       .  S
C1095      C1096   1.407       .  A
C1096      C1097   1.405       .  A
C1096      H1100   1.082       .  S
C1097      C1098   1.400       .  A
C1097      C1125   1.495       .  S
C1098      H1101   1.083       .  S
Zr1102     O1103   2.431       .  S
Zr1102     O1104   2.397       .  S
Zr1102     O1105   2.393       .  S
Zr1102     O1528   2.389   1_554  S
Zr1102     O1110   2.367       .  S
Zr1102     O1531   2.367   1_554  S
Zr1102     O1112   2.387       .  S
Zr1102     O1533   2.384   1_554  S
O1103      H1159   0.989       .  S
O1103      H1167   0.990       .  S
O1104      C1124   1.279       .  A
O1105      C1126   1.278       .  A
O1106     Zr1116   2.479       .  S
O1106      C1125   1.292       .  A
O1107     Zr1115   2.481       .  S
O1107      C1126   1.291       .  A
O1108     Zr1522   2.389       .  S
O1108      C1125   1.278       .  A
O1109     Zr1117   2.431       .  S
O1109      C1124   1.280       .  A
O1110     Zr1115   2.403       .  S
O1110     Zr1117   2.384       .  S
O1111     Zr1522   2.367       .  S
O1111     Zr1116   2.399       .  S
O1111     Zr1537   2.378       .  S
O1111      H1146   0.966       .  S
O1112     Zr1115   2.410       .  S
O1112     Zr1132   2.395       .  S
O1112      H1149   0.966       .  S
O1113     Zr1522   2.384       .  S
O1113     Zr1116   2.404       .  S
O1113     Zr1552   2.400       .  S
Zr1114     O1139   2.436       .  S
Zr1114     O1133   2.407       .  S
Zr1114     O1561   2.388   1_554  S
Zr1114     O1129   2.385       .  S
Zr1114     O1540   2.381   1_554  S
Zr1114     O1121   2.385       .  S
Zr1114     O1122   2.364       .  S
Zr1114     O1543   2.369   1_554  S
Zr1115     O1134   2.435       .  S
Zr1115     O1127   2.434       .  S
Zr1115     O1128   2.486       .  S
Zr1115     O1121   2.403       .  S
Zr1115     O1122   2.394       .  S
Zr1116     O1118   2.434       .  S
Zr1116     O1140   2.435       .  S
Zr1116     O1142   2.482       .  S
Zr1116     O1120   2.401       .  S
Zr1116     O1123   2.392       .  S
Zr1117     O1563   2.435   1_554  S
Zr1117     O1144   2.437       .  S
Zr1117     O1119   2.436       .  S
Zr1117     O1531   2.378   1_554  S
Zr1117     O1540   2.398   1_554  S
Zr1117     O1121   2.399       .  S
O1118      H1155   0.990       .  S
O1119      H1150   0.990       .  S
O1119      H1164   0.990       .  S
O1120     Zr1534   2.381       .  S
O1120     Zr1537   2.398       .  S
O1121      H1147   0.966       .  S
O1122     Zr1132   2.379       .  S
O1123     Zr1534   2.369       .  S
O1123     Zr1552   2.382       .  S
O1123      H1148   0.966       .  S
C1124      C1208   1.483       .  S
C1126      C1181   1.497       .  S
O1127      H1163   0.990       .  S
O1128      C1130   1.294       .  A
O1129      C1130   1.278       .  A
C1130      C1190   1.497       .  S
O1131     Zr1132   2.439       .  S
O1131      H1160   0.990       .  S
Zr1132     O1135   2.436       .  S
Zr1132     O1556   2.437   1_554  S
Zr1132     O1137   2.436       .  S
Zr1132     O1533   2.400   1_554  S
Zr1132     O1543   2.382   1_554  S
O1133      C1138   1.283       .  A
O1134      H1151   0.990       .  S
O1134      H1166   0.990       .  S
O1135      H1152   0.990       .  S
O1136     Zr1552   2.437       .  S
O1136      H1156   0.990       .  S
O1136      H1165   0.990       .  S
O1137      C1138   1.282       .  A
O1139      H1158   0.990       .  S
O1139      H1162   0.990       .  S
O1140      H1154   0.990       .  S
O1140      H1161   0.990       .  S
O1141     Zr1534   2.388       .  S
O1141      C1145   1.279       .  A
O1142      C1145   1.293       .  A
O1143     Zr1537   2.435       .  S
O1143      H1153   0.990       .  S
O1144      H1157   0.990       .  S
C1145      C1172   1.496       .  S
C1168      C1173   1.415       .  A
C1168      C1216   1.484       .  S
C1169      C1170   1.402       .  A
C1169      H1174   1.083       .  S
C1171      C1172   1.405       .  A
C1171      H1175   1.081       .  S
C1172      C1173   1.400       .  A
C1173      H1176   1.083       .  S
C1177      C1178   1.416       .  A
C1177      C1182   1.417       .  A
C1177      C1228   1.486       .  S
C1178      C1179   1.401       .  A
C1178      H1183   1.083       .  S
C1179      C1180   1.405       .  A
C1180      C1181   1.406       .  A
C1180      H1184   1.081       .  S
C1181      C1182   1.401       .  A
C1182      H1185   1.083       .  S
C1186      C1191   1.416       .  A
C1186      C1213   1.484       .  S
C1187      C1188   1.400       .  A
C1187      H1192   1.083       .  S
C1189      C1190   1.407       .  A
C1189      H1193   1.082       .  S
C1190      C1191   1.401       .  A
C1191      H1194   1.083       .  S
C1195      C1196   1.390       .  A
C1195      C1200   1.404       .  A
C1196      C1197   1.392       .  A
C1196      H1201   1.083       .  S
C1197      C1198   1.401       .  A
C1198      C1199   1.425   1_565  A
C1198      H1202   1.075   1_565  S
C1199      C1200   1.428   1_545  A
C1199      C1206   1.519       .  S
C1200      H1203   1.076       .  S
C1204      C1205   1.404       .  A
C1204      C1209   1.390       .  A
C1205      C1206   1.428       .  A
C1205      H1210   1.076       .  S
C1206      C1207   1.425       .  A
C1207      C1208   1.402       .  A
C1207      H1211   1.075       .  S
C1208      C1209   1.392       .  A
C1209      H1212   1.083       .  S
C1213      C1214   1.404       .  A
C1214      C1215   1.399       .  A
C1214      H1219   1.085       .  S
C1215      C1216   1.413       .  A
C1215      C1222   1.444       .  S
C1217      C1218   1.400       .  A
C1217      H1220   1.085       .  S
C1218      C1221   1.444       .  S
C1221      N1223   1.157       .  T
C1222      N1224   1.157       .  T
C1225      C1226   1.405       .  A
C1225      C1230   1.413       .  A
C1226      C1227   1.401       .  A
C1226      H1231   1.085       .  S
C1227      C1228   1.414       .  A
C1227      C1234   1.444       .  S
C1228      C1229   1.404       .  A
C1229      C1230   1.399       .  A
C1229      H1232   1.085       .  S
C1230      C1233   1.444       .  S
C1233      N1235   1.157       .  T
C1234      N1236   1.157       .  T
C1237      C1238   1.404       .  A
C1238      C1239   1.399       .  A
C1238      H1243   1.085       .  S
C1239      C1240   1.413       .  A
C1239      C1246   1.444       .  S
C1241      C1242   1.401       .  A
C1241      H1244   1.085       .  S
C1242      C1245   1.444       .  S
C1245      N1247   1.157       .  T
C1246      N1248   1.157       .  T
C1249      C1250   1.403       .  A
C1249      C1254   1.412       .  A
C1250      C1251   1.400       .  A
C1250      H1255   1.085       .  S
C1251      C1252   1.411       .  A
C1251      C1258   1.444       .  S
C1252      C1253   1.404       .  A
C1253      C1254   1.402       .  A
C1253      H1256   1.085       .  S
C1254      C1257   1.444       .  S
C1257      N1259   1.157       .  T
C1258      N1260   1.157       .  T
C1261      C1266   1.392       .  A
C1261      C1376   1.483       .  S
C1262      H1267   1.075   1_556  S
C1263      C1264   1.428   1_455  A
C1264      H1268   1.076       .  S
C1265      C1315   1.486       .  S
C1266      H1269   1.083       .  S
C1270      C1271   1.404       .  A
C1270      C1558   1.486       .  S
C1271      H1276   1.076       .  S
C1272      C1273   1.425       .  A
C1273      C1274   1.401       .  A
C1273      H1277   1.075       .  S
C1274      C1275   1.392       .  A
C1274      C1469   1.483       .  S
C1275      H1278   1.083       .  S
Zr1279     O1280   2.430       .  S
Zr1279     O1281   2.394       .  S
Zr1279     O1282   2.396       .  S
Zr1279     O1287   2.366       .  S
Zr1279     O1289   2.387       .  S
O1280      H1336   0.989       .  S
O1280      H1344   0.990       .  S
O1281      C1301   1.279       .  A
O1282      C1303   1.279       .  A
O1283     Zr1293   2.482       .  S
O1283      C1302   1.292       .  A
O1284     Zr1292   2.480       .  S
O1284      C1303   1.291       .  A
O1285      C1302   1.279       .  A
O1286     Zr1294   2.432       .  S
O1286      C1301   1.280       .  A
O1287     Zr1292   2.403       .  S
O1287     Zr1294   2.384       .  S
O1288     Zr1293   2.399       .  S
O1288      H1323   0.966       .  S
O1289     Zr1292   2.410       .  S
O1289     Zr1309   2.396       .  S
O1289      H1326   0.966       .  S
O1290     Zr1293   2.404       .  S
Zr1291     O1316   2.436       .  S
Zr1291     O1310   2.407       .  S
Zr1291     O1306   2.386       .  S
Zr1291     O1298   2.385       .  S
Zr1291     O1299   2.364       .  S
Zr1292     O1311   2.435       .  S
Zr1292     O1304   2.434       .  S
Zr1292     O1305   2.485       .  S
Zr1292     O1298   2.403       .  S
Zr1292     O1299   2.394       .  S
Zr1293     O1295   2.434       .  S
Zr1293     O1317   2.435       .  S
Zr1293     O1319   2.483       .  S
Zr1293     O1297   2.401       .  S
Zr1293     O1300   2.393       .  S
Zr1294     O1321   2.437       .  S
Zr1294     O1296   2.436       .  S
Zr1294     O1298   2.399       .  S
O1295      H1332   0.990       .  S
O1296      H1327   0.990       .  S
O1296      H1341   0.990       .  S
O1298      H1324   0.966       .  S
O1299     Zr1309   2.378       .  S
O1300      H1325   0.966       .  S
C1301      C1617   1.483       .  S
C1302      C1349   1.497       .  S
C1303      C1431   1.498       .  S
O1304      H1340   0.990       .  S
O1305      C1307   1.293       .  A
O1306      C1307   1.279       .  A
C1307      C1440   1.497       .  S
O1308     Zr1309   2.439       .  S
O1308      H1337   0.990       .  S
Zr1309     O1312   2.436       .  S
Zr1309     O1314   2.437       .  S
O1310      C1315   1.283       .  A
O1311      H1328   0.990       .  S
O1311      H1343   0.990       .  S
O1312      H1329   0.990       .  S
O1313      H1333   0.990       .  S
O1313      H1342   0.990       .  S
O1314      C1315   1.282       .  A
O1316      H1339   0.990       .  S
O1317      H1331   0.990       .  S
O1317      H1338   0.990       .  S
O1318      C1322   1.280       .  A
O1319      C1322   1.293       .  A
O1320      H1330   0.990       .  S
O1321      H1334   0.990       .  S
C1322      C1422   1.497       .  S
C1345      C1346   1.415       .  A
C1345      C1350   1.415       .  A
C1345      C1672   1.481       .  S
C1346      C1347   1.403       .  A
C1346      H1351   1.083       .  S
C1347      C1348   1.407       .  A
C1347      C1382   1.498       .  S
C1348      C1349   1.406       .  A
C1348      H1352   1.082       .  S
C1349      C1350   1.402       .  A
C1350      H1353   1.083       .  S
Zr1354     O1355   2.431       .  S
Zr1354     O1356   2.396       .  S
Zr1354     O1360   2.389       .  S
Zr1354     O1363   2.368       .  S
Zr1354     O1365   2.384       .  S
O1355      H1411   0.989       .  S
O1355      H1419   0.990       .  S
O1356      C1376   1.279       .  A
O1357      C1378   1.278       .  A
O1358     Zr1368   2.481       .  S
O1358      C1377   1.292       .  A
O1359     Zr1367   2.480       .  S
O1359      C1378   1.291       .  A
O1360      C1377   1.278       .  A
O1361     Zr1369   2.432       .  S
O1361      C1376   1.281       .  A
O1362     Zr1367   2.403       .  S
O1363     Zr1368   2.400       .  S
O1363     Zr1369   2.378       .  S
O1363      H1398   0.966       .  S
O1364     Zr1367   2.409       .  S
O1364      H1401   0.966       .  S
O1365     Zr1368   2.404       .  S
O1365     Zr1384   2.400       .  S
Zr1366     O1391   2.436       .  S
Zr1366     O1385   2.408       .  S
Zr1366     O1393   2.392       .  S
Zr1366     O1372   2.381       .  S
Zr1366     O1375   2.369       .  S
Zr1367     O1386   2.435       .  S
Zr1367     O1379   2.434       .  S
Zr1367     O1380   2.485       .  S
Zr1367     O1373   2.403       .  S
Zr1367     O1374   2.394       .  S
Zr1368     O1370   2.434       .  S
Zr1368     O1392   2.435       .  S
Zr1368     O1394   2.484       .  S
Zr1368     O1372   2.401       .  S
Zr1368     O1375   2.393       .  S
Zr1369     O1395   2.435       .  S
Zr1369     O1396   2.437       .  S
Zr1369     O1372   2.398       .  S
O1370      H1407   0.990       .  S
O1371      H1402   0.990       .  S
O1371      H1416   0.990       .  S
O1373      H1399   0.966       .  S
O1375     Zr1384   2.383       .  S
O1375      H1400   0.966       .  S
C1377      C1442   1.496       .  S
C1378      C1424   1.497       .  S
O1379      H1415   0.990       .  S
O1380      C1382   1.293       .  A
O1381      C1382   1.279       .  A
O1383     Zr1384   2.439       .  S
O1383      H1412   0.990       .  S
Zr1384     O1388   2.437       .  S
Zr1384     O1389   2.436       .  S
O1385      C1390   1.284       .  A
O1386      H1403   0.990       .  S
O1386      H1418   0.990       .  S
O1387      H1404   0.990       .  S
O1388      H1408   0.990       .  S
O1388      H1417   0.990       .  S
O1389      C1390   1.282       .  A
C1390      C1615   1.487       .  S
O1391      H1410   0.990       .  S
O1392      H1406   0.990       .  S
O1392      H1413   0.990       .  S
O1393      C1397   1.280       .  A
O1394      C1397   1.293       .  A
O1395      H1405   0.990       .  S
C1397      C1433   1.498       .  S
C1420      C1425   1.416       .  A
C1420      C1657   1.484       .  S
C1421      C1422   1.401       .  A
C1421      H1426   1.083       .  S
C1423      C1424   1.406       .  A
C1423      H1427   1.081       .  S
C1424      C1425   1.401       .  A
C1425      H1428   1.083       .  S
C1429      C1430   1.415       .  A
C1429      C1434   1.415       .  A
C1429      C1669   1.481       .  S
C1430      C1431   1.402       .  A
C1430      H1435   1.083       .  S
C1431      C1432   1.407       .  A
C1432      C1433   1.406       .  A
C1432      H1436   1.081       .  S
C1433      C1434   1.402       .  A
C1434      H1437   1.083       .  S
C1438      C1443   1.416       .  A
C1438      C1660   1.484       .  S
C1439      C1440   1.402       .  A
C1439      H1444   1.083       .  S
C1441      C1442   1.406       .  A
C1441      H1445   1.082       .  S
C1442      C1443   1.400       .  A
C1443      H1446   1.083       .  S
Zr1447     O1448   2.431       .  S
Zr1447     O1449   2.394       .  S
Zr1447     O1453   2.389       .  S
Zr1447     O1456   2.367       .  S
Zr1447     O1458   2.383       .  S
O1448      H1504   0.989       .  S
O1448      H1512   0.990       .  S
O1449      C1469   1.279       .  A
O1450      C1471   1.278       .  A
O1451     Zr1461   2.480       .  S
O1451      C1470   1.292       .  A
O1452     Zr1460   2.481       .  S
O1452      C1471   1.291       .  A
O1453      C1470   1.278       .  A
O1454     Zr1462   2.433       .  S
O1454      C1469   1.281       .  A
O1455     Zr1460   2.403       .  S
O1456     Zr1461   2.399       .  S
O1456     Zr1462   2.379       .  S
O1456      H1491   0.966       .  S
O1457     Zr1460   2.409       .  S
O1457      H1494   0.966       .  S
O1458     Zr1461   2.404       .  S
O1458     Zr1477   2.400       .  S
Zr1459     O1484   2.436       .  S
Zr1459     O1478   2.407       .  S
Zr1459     O1486   2.389       .  S
Zr1459     O1465   2.381       .  S
Zr1459     O1468   2.369       .  S
Zr1460     O1479   2.435       .  S
Zr1460     O1472   2.434       .  S
Zr1460     O1473   2.485       .  S
Zr1460     O1466   2.403       .  S
Zr1460     O1467   2.394       .  S
Zr1461     O1463   2.434       .  S
Zr1461     O1485   2.435       .  S
Zr1461     O1487   2.482       .  S
Zr1461     O1465   2.401       .  S
Zr1461     O1468   2.392       .  S
Zr1462     O1488   2.435       .  S
Zr1462     O1489   2.437       .  S
Zr1462     O1465   2.398       .  S
O1463      H1500   0.990       .  S
O1464      H1495   0.990       .  S
O1464      H1509   0.990       .  S
O1466      H1492   0.966       .  S
O1468     Zr1477   2.382       .  S
O1468      H1493   0.966       .  S
C1470      C1608   1.495       .  S
C1471      C1590   1.498       .  S
O1472      H1508   0.990       .  S
O1473      C1475   1.293       .  A
O1474      C1475   1.279       .  A
C1475      C1515   1.497       .  S
O1476     Zr1477   2.439       .  S
O1476      H1505   0.990       .  S
Zr1477     O1481   2.437       .  S
Zr1477     O1482   2.437       .  S
O1478      C1483   1.283       .  A
O1479      H1496   0.990       .  S
O1479      H1511   0.990       .  S
O1480      H1497   0.990       .  S
O1481      H1501   0.990       .  S
O1481      H1510   0.990       .  S
O1482      C1483   1.282       .  A
C1483      C1624   1.485       .  S
O1484      H1503   0.990       .  S
O1485      H1499   0.990       .  S
O1485      H1506   0.990       .  S
O1486      C1490   1.280       .  A
O1487      C1490   1.293       .  A
O1488      H1498   0.990       .  S
C1490      C1599   1.496       .  S
C1513      C1514   1.417       .  A
C1513      C1518   1.416       .  A
C1513      C1645   1.485       .  S
C1514      C1515   1.402       .  A
C1514      H1519   1.083       .  S
C1515      C1516   1.407       .  A
C1516      C1517   1.405       .  A
C1516      H1520   1.082       .  S
C1517      C1518   1.400       .  A
C1517      C1545   1.495       .  S
C1518      H1521   1.083       .  S
Zr1522     O1523   2.431       .  S
Zr1522     O1524   2.397       .  S
Zr1522     O1525   2.393       .  S
Zr1522     O1530   2.367       .  S
Zr1522     O1532   2.387       .  S
O1523      H1579   0.989       .  S
O1523      H1587   0.990       .  S
O1524      C1544   1.279       .  A
O1525      C1546   1.278       .  A
O1526     Zr1536   2.479       .  S
O1526      C1545   1.292       .  A
O1527     Zr1535   2.481       .  S
O1527      C1546   1.291       .  A
O1528      C1545   1.278       .  A
O1529     Zr1537   2.431       .  S
O1529      C1544   1.280       .  A
O1530     Zr1535   2.403       .  S
O1530     Zr1537   2.384       .  S
O1531     Zr1536   2.399       .  S
O1531      H1566   0.966       .  S
O1532     Zr1535   2.410       .  S
O1532     Zr1552   2.395       .  S
O1532      H1569   0.966       .  S
O1533     Zr1536   2.404       .  S
Zr1534     O1559   2.436       .  S
Zr1534     O1553   2.407       .  S
Zr1534     O1549   2.385       .  S
Zr1534     O1541   2.385       .  S
Zr1534     O1542   2.364       .  S
Zr1535     O1554   2.435       .  S
Zr1535     O1547   2.434       .  S
Zr1535     O1548   2.486       .  S
Zr1535     O1541   2.403       .  S
Zr1535     O1542   2.394       .  S
Zr1536     O1538   2.434       .  S
Zr1536     O1560   2.435       .  S
Zr1536     O1562   2.482       .  S
Zr1536     O1540   2.401       .  S
Zr1536     O1543   2.392       .  S
Zr1537     O1564   2.437       .  S
Zr1537     O1539   2.436       .  S
Zr1537     O1541   2.399       .  S
O1538      H1575   0.990       .  S
O1539      H1570   0.990       .  S
O1539      H1584   0.990       .  S
O1541      H1567   0.966       .  S
O1542     Zr1552   2.379       .  S
O1543      H1568   0.966       .  S
C1544      C1628   1.483       .  S
C1546      C1601   1.497       .  S
O1547      H1583   0.990       .  S
O1548      C1550   1.294       .  A
O1549      C1550   1.278       .  A
C1550      C1610   1.497       .  S
O1551     Zr1552   2.439       .  S
O1551      H1580   0.990       .  S
Zr1552     O1555   2.436       .  S
Zr1552     O1557   2.436       .  S
O1553      C1558   1.283       .  A
O1554      H1571   0.990       .  S
O1554      H1586   0.990       .  S
O1555      H1572   0.990       .  S
O1556      H1576   0.990       .  S
O1556      H1585   0.990       .  S
O1557      C1558   1.282       .  A
O1559      H1578   0.990       .  S
O1559      H1582   0.990       .  S
O1560      H1574   0.990       .  S
O1560      H1581   0.990       .  S
O1561      C1565   1.279       .  A
O1562      C1565   1.293       .  A
O1563      H1573   0.990       .  S
O1564      H1577   0.990       .  S
C1565      C1592   1.496       .  S
C1588      C1593   1.415       .  A
C1588      C1636   1.484       .  S
C1589      C1590   1.402       .  A
C1589      H1594   1.083       .  S
C1591      C1592   1.405       .  A
C1591      H1595   1.081       .  S
C1592      C1593   1.400       .  A
C1593      H1596   1.083       .  S
C1597      C1598   1.416       .  A
C1597      C1602   1.417       .  A
C1597      C1648   1.486       .  S
C1598      C1599   1.401       .  A
C1598      H1603   1.083       .  S
C1599      C1600   1.405       .  A
C1600      C1601   1.406       .  A
C1600      H1604   1.081       .  S
C1601      C1602   1.401       .  A
C1602      H1605   1.083       .  S
C1606      C1611   1.416       .  A
C1606      C1633   1.484       .  S
C1607      C1608   1.400       .  A
C1607      H1612   1.083       .  S
C1609      C1610   1.407       .  A
C1609      H1613   1.082       .  S
C1610      C1611   1.401       .  A
C1611      H1614   1.083       .  S
C1615      C1616   1.390       .  A
C1615      C1620   1.404       .  A
C1616      C1617   1.392       .  A
C1616      H1621   1.083       .  S
C1617      C1618   1.401       .  A
C1618      C1619   1.425   1_565  A
C1618      H1622   1.075   1_565  S
C1619      C1620   1.428   1_545  A
C1619      C1626   1.519       .  S
C1620      H1623   1.076       .  S
C1624      C1625   1.404       .  A
C1624      C1629   1.390       .  A
C1625      C1626   1.428       .  A
C1625      H1630   1.076       .  S
C1626      C1627   1.425       .  A
C1627      C1628   1.402       .  A
C1627      H1631   1.075       .  S
C1628      C1629   1.392       .  A
C1629      H1632   1.083       .  S
C1633      C1634   1.404       .  A
C1634      C1635   1.399       .  A
C1634      H1639   1.085       .  S
C1635      C1636   1.413       .  A
C1635      C1642   1.444       .  S
C1637      C1638   1.400       .  A
C1637      H1640   1.085       .  S
C1638      C1641   1.444       .  S
C1641      N1643   1.157       .  T
C1642      N1644   1.157       .  T
C1645      C1646   1.405       .  A
C1645      C1650   1.413       .  A
C1646      C1647   1.401       .  A
C1646      H1651   1.085       .  S
C1647      C1648   1.414       .  A
C1647      C1654   1.444       .  S
C1648      C1649   1.404       .  A
C1649      C1650   1.399       .  A
C1649      H1652   1.085       .  S
C1650      C1653   1.444       .  S
C1653      N1655   1.157       .  T
C1654      N1656   1.157       .  T
C1657      C1658   1.404       .  A
C1658      C1659   1.399       .  A
C1658      H1663   1.085       .  S
C1659      C1660   1.413       .  A
C1659      C1666   1.444       .  S
C1661      C1662   1.401       .  A
C1661      H1664   1.085       .  S
C1662      C1665   1.444       .  S
C1665      N1667   1.157       .  T
C1666      N1668   1.157       .  T
C1669      C1670   1.403       .  A
C1669      C1674   1.412       .  A
C1670      C1671   1.400       .  A
C1670      H1675   1.085       .  S
C1671      C1672   1.411       .  A
C1671      C1678   1.444       .  S
C1672      C1673   1.404       .  A
C1673      C1674   1.402       .  A
C1673      H1676   1.085       .  S
C1674      C1677   1.444       .  S
C1677      N1679   1.157       .  T
C1678      N1680   1.157       .  T
