geometry optimzed in LAMMPS
_audit_creation_date              2020-12-01 
_audit_creation_method            'lammps2cif' 
_symmetry_space_group_name_H-M    'P1' 
_symmetry_Int_Tables_number       1 
_symmetry_cell_setting            triclinic 
loop_ 
_symmetry_equiv_pos_as_xyz 
  x,y,z 
_cell_length_a                    35.53421547 
_cell_length_b                    35.53484887390228 
_cell_length_c                    26.13416543719825 
_cell_angle_alpha                 89.86210826970786 
_cell_angle_beta                  90.07476111296174 
_cell_angle_gamma                 89.9759368143462 
loop_ 
_atom_site_label 
_atom_site_type_symbol 
_atom_site_fract_x 
_atom_site_fract_y 
_atom_site_fract_z 
_atom_site_charge 
C1          C  0.62844712  0.32492179  0.51190098     0.81000
N2          N  0.66544216  0.33447307  0.51610016    -0.77300
C3          C  0.67574268  0.37137305  0.51781811     0.83400
N4          N  0.64888972  0.39847444  0.01464796    -0.77300
C5          C  0.61203823  0.38920172  0.01050495     0.83500
N6          N  0.60194935  0.35243325  0.00920710    -0.79000
C7          C  0.84075056  0.87733464  0.26344861     0.81000
N8          N  0.85222405  0.84070494  0.26507759    -0.77300
C9          C  0.88948893  0.83190483  0.26145487     0.83400
N10         N  0.91492710  0.86002795  0.25551639    -0.77300
C11         C  0.90405337  0.89654097  0.25361710     0.83500
N12         N  0.86695425  0.90490340  0.25765232    -0.79000
C13         C  0.39382456  0.65367581  0.98322460     0.81000
N14         N  0.42069771  0.62644757  0.98441166    -0.77300
C15         C  0.41119426  0.58945155  0.98640345     0.83400
N16         N  0.37423333  0.57985079  0.98768364    -0.77300
C17         C  0.34706214  0.60666566  0.98600370     0.83500
N18         N  0.35692190  0.64354548  0.98362173    -0.79000
O19         O  0.54197209  0.94108348  0.25128352    -0.73700
O20         O  0.44244345  0.98258424  0.25049730    -0.73700
O21         O  0.49239488  0.96194326  0.17765959    -0.73700
O22         O  0.49215267  0.96194746  0.32429132    -0.73800
O23         O  0.51495980  0.02051439  0.32419939    -0.73700
O24         O  0.51761656  0.01950303  0.17789094    -0.73700
O25         O  0.46621187  0.04054755  0.24897528    -0.73700
O26         O  0.56591514  0.99911660  0.25391028    -0.73700
Ni27       Ni  0.49136042  0.95982275  0.25091299     1.25400
Ni28       Ni  0.51702152  0.02200321  0.25113059     1.25400
C29         C  0.57026860  0.96329788  0.25379891     0.88500
C30         C  0.43775628  0.01835632  0.24938738     0.88500
C31         C  0.50520745  0.99072198  0.15387736     0.88500
C32         C  0.50364840  0.99122448  0.34813034     0.88600
O33         O  0.55310440  0.03078211  0.00025441    -0.73700
O34         O  0.51584534  0.92998523  0.00142799    -0.73700
O35         O  0.53371084  0.98019522  0.42747381    -0.72700
O36         O  0.53485102  0.98056978  0.07411019    -0.73800
O37         O  0.47556477  0.00146544  0.07434031    -0.73700
O38         O  0.47497566  0.00260136  0.42798550    -0.73700
O39         O  0.45684923  0.95138172  0.00038427    -0.73700
O40         O  0.49438967  0.05269558  0.50167775    -0.73700
Ni41       Ni  0.53646677  0.97962191  0.00078531     1.25400
Ni42       Ni  0.47332987  0.00285230  0.00115029     1.25400
C43         C  0.53003536  0.05847254  0.00109754     0.88500
C44         C  0.48033275  0.92396220  0.00073835     0.88500
C45         C  0.50410396  0.99126117  0.40384566     0.88500
C46         C  0.50524740  0.99091555  0.09812502     0.88600
C47         C  0.16970421  0.11304319  0.24475598     0.81000
N48         N  0.14258992  0.08633685  0.24076589    -0.77300
C49         C  0.10564714  0.09590185  0.24111918     0.83400
N50         N  0.09588245  0.13270449  0.24501554    -0.77300
C51         C  0.12267698  0.15984554  0.24908766     0.83500
N52         N  0.15966079  0.14980321  0.24924422    -0.79000
O53         O  0.03834737  0.50667803  0.31837976    -0.73700
O54         O  0.03849620  0.50729126  0.17186015    -0.73700
O55         O  0.01993306  0.55789893  0.24525592    -0.73700
O56         O  0.05661970  0.45641370  0.24497598    -0.73800
O57         O  0.99759664  0.43517416  0.24239815    -0.73700
O58         O  0.96099243  0.53636755  0.24757505    -0.73700
O59         O  0.97887943  0.48737847  0.17166152    -0.73700
O60         O  0.97975987  0.48392489  0.31808921    -0.73700
Ni61       Ni  0.04046877  0.50787862  0.24510136     1.25400
Ni62       Ni  0.97719268  0.48498529  0.24487221     1.25400
C63         C  0.00913629  0.49491574  0.34213263     0.88500
C64         C  0.00876114  0.49723423  0.14787757     0.88500
C65         C  0.98437034  0.56380018  0.24736119     0.88500
C66         C  0.03312149  0.42908729  0.24328702     0.88600
O67         O  0.02063651  0.46716967  0.06897499    -0.73700
O68         O  0.02031454  0.46559637  0.42224804    -0.73700
O69         O  0.07051019  0.48565094  0.99515013    -0.73700
O70         O  0.97054632  0.44649109  0.49653659    -0.73800
O71         O  0.94728579  0.50468695  0.99503145    -0.73700
O72         O  0.04819671  0.54422011  0.49411863    -0.73700
O73         O  0.99758935  0.52419594  0.42134935    -0.73700
O74         O  0.99751922  0.52561899  0.06759630    -0.73700
Ni75       Ni  0.02130000  0.46416997  0.99570835     1.25400
Ni76       Ni  0.99681474  0.52679403  0.99441942     1.25400
C77         C  0.00901867  0.49666473  0.09216881     0.88500
C78         C  0.00901683  0.49481641  0.39789349     0.88500
C79         C  0.07609288  0.52124132  0.99460971     0.88500
C80         C  0.94234346  0.46889401  0.99672286     0.88600
C81         C  0.03909404  0.32362912  0.22383504    -0.27400
C82         C  0.07337381  0.31508024  0.24806496     0.06200
C83         C  0.09482110  0.34448989  0.26913530     0.25800
C84         C  0.08188719  0.38157267  0.26644097    -0.11900
C85         C  0.04719894  0.38999392  0.24330926    -0.25900
C86         C  0.02595848  0.36066171  0.22159586     0.36600
C87         C  0.08661914  0.27555299  0.25084715     0.06200
F88         F  0.12767959  0.33725384  0.29380616    -0.19700
H89         H  0.09862994  0.40367520  0.28372819     0.16000
F90         F  0.99287391  0.36780690  0.19739594    -0.23400
H91         H  0.02251315  0.30152327  0.20626900     0.17800
C92         C  0.06241449  0.24668325  0.26731325     0.25800
C93         C  0.07461666  0.20931472  0.26747545    -0.11900
C94         C  0.11126943  0.19992780  0.25175068    -0.25900
C95         C  0.13584359  0.22900790  0.23669973     0.36700
C96         C  0.12344958  0.26635235  0.23600584    -0.27600
F97         F  0.02707260  0.25463561  0.28377016    -0.19700
H98         H  0.05522410  0.18762999  0.27994216     0.16000
F99         F  0.17135342  0.22138939  0.22071568    -0.23400
H100        H  0.14246145  0.28809181  0.22264179     0.17800
C101        C  0.35497877  0.08666882  0.24539881    -0.27400
C102        C  0.32421305  0.06193201  0.24764307     0.06200
C103        C  0.33108852  0.02299733  0.25059296     0.25800
C104        C  0.36792952  0.00925179  0.25106210    -0.11900
C105        C  0.39886843  0.03388703  0.24871957    -0.25900
C106        C  0.39193449  0.07294124  0.24593947     0.36600
C107        C  0.28506568  0.07660794  0.24584076     0.06200
F108        F  0.30216095  0.99817123  0.25403589    -0.19700
H109        H  0.37215076  0.97911379  0.25349383     0.16000
F110        F  0.42068916  0.09799109  0.24336871    -0.23400
H111        H  0.35038047  0.11673001  0.24243382     0.17800
C112        C  0.27322508  0.10596077  0.27821445     0.25800
C113        C  0.23587303  0.11861645  0.27673489    -0.11900
C114        C  0.20968362  0.10178292  0.24367870    -0.25900
C115        C  0.22168123  0.07294203  0.21078837     0.36700
C116        C  0.25902433  0.06075572  0.21166644    -0.27600
F117        F  0.29731512  0.12135822  0.31264151    -0.19700
H118        H  0.22709572  0.14068419  0.30262089     0.16000
F119        F  0.19739615  0.05688150  0.17716677    -0.23400
H120        H  0.26763924  0.03878202  0.18553858     0.17800
C121        C  0.47590748  0.81801933  0.01577453    -0.27400
C122        C  0.44136718  0.80955086  0.49227578     0.06200
C123        C  0.41913802  0.83924976  0.47312847     0.25800
C124        C  0.43151432  0.87648566  0.47718388    -0.11900
C125        C  0.46649480  0.88476888  0.99951760    -0.25900
C126        C  0.48858279  0.85512207  0.01899444     0.36600
C127        C  0.42879252  0.76980244  0.48819229     0.06200
F128        F  0.38606494  0.83224346  0.44892469    -0.19700
H129        H  0.41418104  0.89879434  0.46147030     0.16000
F130        F  0.52221573  0.86196125  0.04185527    -0.23400
H131        H  0.49312125  0.79581691  0.03197730     0.17800
C132        C  0.45371255  0.74147233  0.97190993     0.25800
C133        C  0.44195010  0.70400541  0.96989820    -0.11900
C134        C  0.40503693  0.69389328  0.98351882    -0.25900
C135        C  0.37991981  0.72235552  0.49905861     0.36700
C136        C  0.39185657  0.75979544  0.50161048    -0.27600
F137        F  0.48933453  0.75000175  0.95717939    -0.19700
H138        H  0.46186109  0.68286411  0.95742924     0.16000
F139        F  0.34418986  0.71406680  0.51347947    -0.23400
H140        H  0.37234178  0.78092754  0.51518927     0.17800
C141        C  0.25709101  0.55912064  0.02743880    -0.27400
C142        C  0.23112041  0.57283955  0.49129402     0.06200
C143        C  0.24366095  0.59849470  0.45378159     0.25800
C144        C  0.28128779  0.61014876  0.45292207    -0.11900
C145        C  0.30717734  0.59564111  0.98836973    -0.25900
C146        C  0.29484207  0.56994884  0.02562188     0.36600
C147        C  0.19131974  0.55989666  0.49266593     0.06200
F148        F  0.21992165  0.61124651  0.41688240    -0.19700
H149        H  0.29050961  0.62970436  0.42355391     0.16000
F150        F  0.31917280  0.55599460  0.06099558    -0.23400
H151        H  0.24809405  0.53997500  0.05740814     0.17800
C152        C  0.18269921  0.52148904  0.99851550     0.25800
C153        C  0.14531351  0.50950215  0.99951160    -0.11900
C154        C  0.11548114  0.53530953  0.99454250    -0.25900
C155        C  0.12406894  0.57382544  0.48908776     0.36700
C156        C  0.16160424  0.58585326  0.48829296    -0.27600
F157        F  0.21040514  0.49527335  0.00187776    -0.19700
H158        H  0.13980552  0.47964587  0.00384462     0.16000
F159        F  0.09639056  0.59990650  0.48412517    -0.23400
H160        H  0.16745988  0.61569245  0.48460748     0.17800
C161        C  0.95267398  0.99197391  0.25236577    -0.27400
C162        C  0.98904796  0.98226350  0.23602669     0.06200
C163        C  0.99671960  0.94446500  0.22392284     0.25800
C164        C  0.96889953  0.91704618  0.22951208    -0.11900
C165        C  0.93262931  0.92657925  0.24660833    -0.25900
C166        C  0.92463563  0.96461144  0.25731183     0.36600
C167        C  0.01929198  0.01112907  0.23463292     0.06200
F168        F  0.03106814  0.93397188  0.20629477    -0.19700
H169        H  0.97588331  0.88815664  0.22020095     0.16000
F170        F  0.89022397  0.97539731  0.27422248    -0.23400
H171        H  0.94615580  0.02074819  0.26285790     0.17800
C172        C  0.01292716  0.04722263  0.21394559     0.25800
C173        C  0.04109864  0.07467586  0.21614077    -0.11900
C174        C  0.07633855  0.06647141  0.23791886    -0.25900
C175        C  0.08300188  0.03011707  0.25735083     0.36700
C176        C  0.05461286  0.00302045  0.25621387    -0.27600
F177        F  0.97971490  0.05583231  0.19100494    -0.19700
H178        H  0.03545981  0.10233691  0.20029202     0.16000
F179        F  0.11643754  0.02108042  0.27936145    -0.23400
H180        H  0.06005194  0.97579189  0.27349111     0.17800
C181        C  0.75075522  0.93497717  0.27153860    -0.27400
C182        C  0.72270905  0.90734599  0.26791956     0.06200
C183        C  0.73369862  0.86935787  0.26393935     0.25800
C184        C  0.77199728  0.85961386  0.26322733    -0.11900
C185        C  0.80008900  0.88746855  0.26653266    -0.25900
C186        C  0.78877520  0.92535941  0.27147448     0.36600
C187        C  0.68246154  0.91910804  0.26701648     0.06200
F188        F  0.70752683  0.84161402  0.26138396    -0.19700
H189        H  0.77960378  0.83023298  0.25961374     0.16000
F190        F  0.81424195  0.95354826  0.27627933    -0.23400
H191        H  0.74326914  0.96447286  0.27364972     0.17800
C192        C  0.66928796  0.94707455  0.30074548     0.25800
C193        C  0.63290444  0.96149381  0.29567283    -0.11900
C194        C  0.60845705  0.94749564  0.25819699    -0.25900
C195        C  0.62071618  0.91837118  0.22599921     0.36700
C196        C  0.65759995  0.90465808  0.22998363    -0.27600
F197        F  0.69152342  0.96038183  0.33890703    -0.19700
H198        H  0.62358039  0.98332909  0.32158143     0.16000
F199        F  0.59760424  0.90439857  0.18927449    -0.23400
H200        H  0.66704699  0.88359108  0.20306232     0.17800
C201        C  0.95369284  0.74627699  0.26621073    -0.27400
C202        C  0.92833770  0.71668132  0.25782882     0.06200
C203        C  0.88971549  0.72506396  0.25313944     0.25800
C204        C  0.87710528  0.76239024  0.25556213    -0.11900
C205        C  0.90267758  0.79215183  0.26234640    -0.25900
C206        C  0.94124890  0.78350385  0.26827345     0.36600
C207        C  0.94253591  0.67735610  0.25436721     0.06200
F208        F  0.86423899  0.69735443  0.24445662    -0.19700
H209        H  0.84734821  0.76801331  0.25085015     0.16000
F210        F  0.96723472  0.81085143  0.27637625    -0.23400
H211        H  0.98338891  0.74056724  0.27145646     0.17800
C212        C  0.97451187  0.66858272  0.22476878     0.25800
C213        C  0.98829205  0.63170684  0.22315886    -0.11900
C214        C  0.97001021  0.60275681  0.24993347    -0.25900
C215        C  0.93795104  0.61137118  0.27915381     0.36700
C216        C  0.92462850  0.64835186  0.28165781    -0.27600
F217        F  0.99194798  0.69543677  0.19637967    -0.19700
H218        H  0.01282565  0.62560845  0.20008878     0.16000
F219        F  0.92018251  0.58425291  0.30666740    -0.23400
H220        H  0.90058226  0.65440376  0.30564257     0.17800
C221        C  0.56138486  0.47867288  0.47256651    -0.27400
C222        C  0.52755773  0.47529796  0.00001249     0.06200
C223        C  0.52194289  0.44335097  0.03110280     0.25800
C224        C  0.54936122  0.41521425  0.03381556    -0.11900
C225        C  0.58320940  0.41886431  0.00675877    -0.25900
C226        C  0.58916654  0.45093788  0.47627293     0.36600
C227        C  0.49805513  0.50473435  0.99548921     0.06200
F228        F  0.49036146  0.43973160  0.05986481    -0.19700
H229        H  0.54449415  0.39088857  0.05793960     0.16000
F230        F  0.62129278  0.45485806  0.44871447    -0.23400
H231        H  0.56610602  0.50255597  0.44762344     0.17800
C232        C  0.50705546  0.54318020  0.49921315     0.25800
C233        C  0.47879334  0.57044477  0.49559785    -0.11900
C234        C  0.44092168  0.56005451  0.98852611    -0.25900
C235        C  0.43208369  0.52150342  0.98416084     0.36700
C236        C  0.46041180  0.49433620  0.98735514    -0.27600
F237        F  0.54299507  0.55444674  0.50790339    -0.19700
H238        H  0.48662613  0.59973796  0.49920731     0.16000
F239        F  0.39618178  0.50976435  0.97648227    -0.23400
H240        H  0.45287865  0.46500367  0.98315844     0.17800
C241        C  0.76363815  0.42895118  0.04148792    -0.27400
C242        C  0.79095431  0.40847230  0.51449154     0.06200
C243        C  0.78061305  0.37377095  0.49244091     0.25800
C244        C  0.74344723  0.36087897  0.49577739    -0.11900
C245        C  0.71581765  0.38252500  0.02030732    -0.25900
C246        C  0.72644695  0.41642588  0.04401374     0.36600
C247        C  0.82974021  0.42386695  0.50892507     0.06200
F248        F  0.80587118  0.35317180  0.46546789    -0.19700
H249        H  0.73590730  0.33473987  0.47705811     0.16000
F250        F  0.70086766  0.43757126  0.06965961    -0.23400
H251        H  0.77102881  0.45504683  0.06040718     0.17800
C252        C  0.83570387  0.46202797  0.99641235     0.25800
C253        C  0.87223928  0.47639247  0.99232308    -0.11900
C254        C  0.90369552  0.45306582  0.99986274    -0.25900
C255        C  0.89769481  0.41473423  0.51158873     0.36700
C256        C  0.86117248  0.40055441  0.51645252    -0.27600
F257        F  0.80623322  0.48538377  0.98707443    -0.19700
H258        H  0.87586481  0.50588724  0.98288181     0.16000
F259        F  0.92701118  0.39090030  0.51944621    -0.23400
H260        H  0.85751652  0.37126672  0.52698948     0.17800
C261        C  0.53625682  0.16522890  0.00783689    -0.27400
C262        C  0.57516364  0.17124587  0.50283204     0.06200
C263        C  0.59903913  0.13995349  0.49744051     0.25800
C264        C  0.58411852  0.10354692  0.49689651    -0.11900
C265        C  0.54511546  0.09745862  0.00156164    -0.25900
C266        C  0.52126273  0.12887362  0.00699312     0.36600
C267        C  0.59036475  0.21019537  0.50332215     0.06200
F268        F  0.63669821  0.14455764  0.49143561    -0.19700
H269        H  0.60328030  0.08003850  0.49245037     0.16000
F270        F  0.48348045  0.12466939  0.01193769    -0.23400
H271        H  0.51732141  0.18885915  0.01291268     0.17800
C272        C  0.57358895  0.23852301  0.97329882     0.25800
C273        C  0.58639789  0.27558043  0.97624654    -0.11900
C274        C  0.61665814  0.28513476  0.00826469    -0.25900
C275        C  0.63427009  0.25672217  0.53719874     0.36700
C276        C  0.62099178  0.21963671  0.53495380    -0.27600
F277        F  0.54506952  0.23030167  0.94056982    -0.19700
H278        H  0.57273534  0.29692509  0.95302541     0.16000
F279        F  0.66313327  0.26505801  0.56928851    -0.23400
H280        H  0.63408618  0.19841835  0.55895866     0.17800
C281        C  0.62844715  0.32492177  0.01190106     0.81000
N282        N  0.66544219  0.33447307  0.01610021    -0.77300
C283        C  0.67574269  0.37137305  0.01781814     0.83400
N284        N  0.64888972  0.39847445  0.51464792    -0.77300
C285        C  0.61203822  0.38920174  0.51050488     0.83500
N286        N  0.60194934  0.35243328  0.50920701    -0.79000
C287        C  0.84075051  0.87733447  0.76344884     0.81000
N288        N  0.85222401  0.84070477  0.76507765    -0.77300
C289        C  0.88948889  0.83190468  0.76145482     0.83400
N290        N  0.91492705  0.86002781  0.75551640    -0.77300
C291        C  0.90405330  0.89654083  0.75361729     0.83500
N292        N  0.86695419  0.90490325  0.75765261    -0.79000
C293        C  0.39382454  0.65367585  0.48322481     0.81000
N294        N  0.42069770  0.62644761  0.48441185    -0.77300
C295        C  0.41119426  0.58945159  0.48640356     0.83400
N296        N  0.37423333  0.57985082  0.48768371    -0.77300
C297        C  0.34706213  0.60666568  0.48600378     0.83500
N298        N  0.35692188  0.64354551  0.48362188    -0.79000
O299        O  0.54197211  0.94108352  0.75128355    -0.73700
O300        O  0.44244348  0.98258431  0.75049724    -0.73700
O301        O  0.49239493  0.96194331  0.67765959    -0.73700
O302        O  0.49215265  0.96194751  0.82429131    -0.73800
O303        O  0.51495981  0.02051443  0.82419940    -0.73700
O304        O  0.51761663  0.01950308  0.67789095    -0.73700
O305        O  0.46621191  0.04054762  0.74897526    -0.73700
O306        O  0.56591517  0.99911662  0.75391033    -0.73700
Ni307      Ni  0.49136044  0.95982281  0.75091298     1.25400
Ni308      Ni  0.51702156  0.02200325  0.75113061     1.25400
C309        C  0.57026862  0.96329791  0.75379896     0.88500
C310        C  0.43775632  0.01835639  0.74938732     0.88500
C311        C  0.50520751  0.99072204  0.65387736     0.88500
C312        C  0.50364839  0.99122453  0.84813034     0.88600
O313        O  0.55310443  0.03078214  0.50025434    -0.73700
O314        O  0.51584537  0.92998525  0.50142807    -0.73700
O315        O  0.53371082  0.98019525  0.92747381    -0.72700
O316        O  0.53485108  0.98056985  0.57411019    -0.73800
O317        O  0.47556482  0.00146548  0.57434031    -0.73700
O318        O  0.47497564  0.00260137  0.92798550    -0.73700
O319        O  0.45684927  0.95138174  0.50038433    -0.73700
O320        O  0.49438965  0.05269557  0.00167779    -0.73700
Ni321      Ni  0.53646681  0.97962193  0.50078531     1.25400
Ni322      Ni  0.47332991  0.00285232  0.50115029     1.25400
C323        C  0.53003538  0.05847255  0.50109746     0.88500
C324        C  0.48033278  0.92396223  0.50073845     0.88500
C325        C  0.50410395  0.99126121  0.90384566     0.88500
C326        C  0.50524746  0.99091562  0.59812502     0.88600
C327        C  0.16970416  0.11304306  0.74475620     0.81000
N328        N  0.14258987  0.08633672  0.74076613    -0.77300
C329        C  0.10564709  0.09590171  0.74111948     0.83400
N330        N  0.09588241  0.13270435  0.74501586    -0.77300
C331        C  0.12267694  0.15984540  0.74908794     0.83500
N332        N  0.15966074  0.14980308  0.74924445    -0.79000
O333        O  0.03834733  0.50667792  0.81837975    -0.73700
O334        O  0.03849618  0.50729108  0.67186015    -0.73700
O335        O  0.01993305  0.55789878  0.74525587    -0.73700
O336        O  0.05661966  0.45641354  0.74497602    -0.73800
O337        O  0.99759659  0.43517402  0.74239818    -0.73700
O338        O  0.96099242  0.53636741  0.74757501    -0.73700
O339        O  0.97887941  0.48737830  0.67166151    -0.73700
O340        O  0.97975983  0.48392478  0.81808921    -0.73700
Ni341      Ni  0.04046875  0.50787847  0.74510136     1.25400
Ni342      Ni  0.97719265  0.48498515  0.74487220     1.25400
C343        C  0.00913625  0.49491565  0.84213263     0.88500
C344        C  0.00876113  0.49723406  0.64787757     0.88500
C345        C  0.98437033  0.56380004  0.74736113     0.88500
C346        C  0.03312144  0.42908714  0.74328707     0.88600
O347        O  0.02063649  0.46716954  0.56897495    -0.73700
O348        O  0.02031452  0.46559636  0.92224808    -0.73700
O349        O  0.07051020  0.48565085  0.49515016    -0.73700
O350        O  0.97054633  0.44649112  0.99653668    -0.73800
O351        O  0.94728580  0.50468692  0.49503143    -0.73700
O352        O  0.04819668  0.54422019  0.99411852    -0.73700
O353        O  0.99758931  0.52419592  0.92134930    -0.73700
O354        O  0.99751921  0.52561887  0.56759635    -0.73700
Ni355      Ni  0.02130000  0.46416991  0.49570831     1.25400
Ni356      Ni  0.99681476  0.52679398  0.49441947     1.25400
C357        C  0.00901866  0.49666459  0.59216881     0.88500
C358        C  0.00901678  0.49481637  0.89789348     0.88500
C359        C  0.07609291  0.52124123  0.49460979     0.88500
C360        C  0.94234345  0.46889399  0.49672280     0.88600
C361        C  0.03909403  0.32362898  0.72383501    -0.27400
C362        C  0.07337377  0.31508010  0.74806506     0.06200
C363        C  0.09482101  0.34448974  0.76913550     0.25800
C364        C  0.08188710  0.38157254  0.76644117    -0.11900
C365        C  0.04719888  0.38999378  0.74330933    -0.25900
C366        C  0.02595847  0.36066158  0.72159585     0.36600
C367        C  0.08661909  0.27555285  0.75084728     0.06200
F368        F  0.12767945  0.33725369  0.79380648    -0.19700
H369        H  0.09862977  0.40367498  0.78372841     0.16000
F370        F  0.99287394  0.36780677  0.69739583    -0.23400
H371        H  0.02251323  0.30152320  0.70626897     0.17800
C372        C  0.06241442  0.24668312  0.76731330     0.25800
C373        C  0.07461658  0.20931459  0.76747556    -0.11900
C374        C  0.11126939  0.19992767  0.75175092    -0.25900
C375        C  0.13584357  0.22900777  0.73670006     0.36700
C376        C  0.12344956  0.26635222  0.73600611    -0.27600
F377        F  0.02707249  0.25463548  0.78377009    -0.19700
H378        H  0.05522401  0.18762987  0.77994220     0.16000
F379        F  0.17135344  0.22138926  0.72071617    -0.23400
H380        H  0.14246145  0.28809167  0.72264214     0.17800
C381        C  0.35497878  0.08666890  0.74539874    -0.27400
C382        C  0.32421307  0.06193204  0.74764296     0.06200
C383        C  0.33108855  0.02299737  0.75059281     0.25800
C384        C  0.36792956  0.00925184  0.75106195    -0.11900
C385        C  0.39886847  0.03388710  0.74871948    -0.25900
C386        C  0.39193451  0.07294130  0.74593943     0.36600
C387        C  0.28506568  0.07660795  0.74584070     0.06200
F388        F  0.30216101  0.99817125  0.75403574    -0.19700
H389        H  0.37215081  0.97911391  0.75349364     0.16000
F390        F  0.42068917  0.09799117  0.74336877    -0.23400
H391        H  0.35038050  0.11672988  0.74243380     0.17800
C392        C  0.27322510  0.10596079  0.77821436     0.25800
C393        C  0.23587301  0.11861645  0.77673493    -0.11900
C394        C  0.20968358  0.10178281  0.74367884    -0.25900
C395        C  0.22168117  0.07294190  0.71078855     0.36700
C396        C  0.25902429  0.06075564  0.71166648    -0.27600
F397        F  0.29731517  0.12135833  0.81264132    -0.19700
H398        H  0.22709579  0.14068405  0.80262071     0.16000
F399        F  0.19739605  0.05688129  0.67716706    -0.23400
H400        H  0.26763915  0.03878201  0.68553874     0.17800
C401        C  0.47590747  0.81801936  0.51577488    -0.27400
C402        C  0.44136720  0.80955082  0.99227548     0.06200
C403        C  0.41913800  0.83924974  0.97312824     0.25800
C404        C  0.43151432  0.87648561  0.97718374    -0.11900
C405        C  0.46649483  0.88476891  0.49951777    -0.25900
C406        C  0.48858279  0.85512212  0.51899470     0.36600
C407        C  0.42879253  0.76980240  0.98819197     0.06200
F408        F  0.38606492  0.83224344  0.94892449    -0.19700
H409        H  0.41418086  0.89879450  0.96147007     0.16000
F410        F  0.52221572  0.86196130  0.54185555    -0.23400
H411        H  0.49312112  0.79581708  0.53197762     0.17800
C412        C  0.45371256  0.74147237  0.47191034     0.25800
C413        C  0.44195013  0.70400542  0.46989857    -0.11900
C414        C  0.40503692  0.69389332  0.48351909    -0.25900
C415        C  0.37991984  0.72235549  0.99905841     0.36700
C416        C  0.39185659  0.75979542  0.00161026    -0.27600
F417        F  0.48933457  0.75000177  0.45717990    -0.19700
H418        H  0.46186105  0.68286421  0.45742971     0.16000
F419        F  0.34418990  0.71406677  0.01347935    -0.23400
H420        H  0.37234187  0.78092746  0.01518908     0.17800
C421        C  0.25709103  0.55912057  0.52743881    -0.27400
C422        C  0.23112041  0.57283960  0.99129399     0.06200
C423        C  0.24366096  0.59849469  0.95378149     0.25800
C424        C  0.28128781  0.61014871  0.95292197    -0.11900
C425        C  0.30717734  0.59564112  0.48836981    -0.25900
C426        C  0.29484208  0.56994880  0.52562189     0.36600
C427        C  0.19131973  0.55989673  0.99266589     0.06200
F428        F  0.21992167  0.61124647  0.91688228    -0.19700
H429        H  0.29050966  0.62970429  0.92355371     0.16000
F430        F  0.31917283  0.55599452  0.56099555    -0.23400
H431        H  0.24809411  0.53997493  0.55740806     0.17800
C432        C  0.18269924  0.52148897  0.49851558     0.25800
C433        C  0.14531353  0.50950207  0.49951172    -0.11900
C434        C  0.11548116  0.53530944  0.49454257    -0.25900
C435        C  0.12406893  0.57382554  0.98908776     0.36700
C436        C  0.16160424  0.58585334  0.98829297    -0.27600
F437        F  0.21040517  0.49527328  0.50187783    -0.19700
H438        H  0.13980555  0.47964581  0.50384479     0.16000
F439        F  0.09639056  0.59990661  0.98412528    -0.23400
H440        H  0.16745990  0.61569255  0.98460752     0.17800
C441        C  0.95267399  0.99197369  0.75236671    -0.27400
C442        C  0.98904782  0.98226343  0.73602696     0.06200
C443        C  0.99671934  0.94446500  0.72392241     0.25800
C444        C  0.96889928  0.91704621  0.72951166    -0.11900
C445        C  0.93262922  0.92657913  0.74660856    -0.25900
C446        C  0.92463566  0.96461124  0.75731277     0.36600
C447        C  0.01929187  0.01112898  0.73463317     0.06200
F448        F  0.03106773  0.93397201  0.70629366    -0.19700
H449        H  0.97588302  0.88815647  0.72019990     0.16000
F450        F  0.89022414  0.97539698  0.77422413    -0.23400
H451        H  0.94615588  0.02074811  0.76285946     0.17800
C452        C  0.01292691  0.04722271  0.71394643     0.25800
C453        C  0.04109842  0.07467582  0.71614165    -0.11900
C454        C  0.07633847  0.06647129  0.73791912    -0.25900
C455        C  0.08300193  0.03011678  0.75735049     0.36700
C456        C  0.05461290  0.00302018  0.75621351    -0.27600
F457        F  0.97971448  0.05583256  0.69100637    -0.19700
H458        H  0.03545939  0.10233742  0.70029312     0.16000
F459        F  0.11643775  0.02107993  0.77936052    -0.23400
H460        H  0.06005211  0.97579142  0.77349031     0.17800
C461        C  0.75075522  0.93497700  0.77153931    -0.27400
C462        C  0.72270903  0.90734588  0.76791979     0.06200
C463        C  0.73369857  0.86935777  0.76393919     0.25800
C464        C  0.77199722  0.85961374  0.76322720    -0.11900
C465        C  0.80008896  0.88746837  0.76653297    -0.25900
C466        C  0.78877519  0.92535920  0.77147525     0.36600
C467        C  0.68246152  0.91910798  0.76701662     0.06200
F468        F  0.70752676  0.84161396  0.76138339    -0.19700
H469        H  0.77960371  0.83023284  0.75961327     0.16000
F470        F  0.81424196  0.95354798  0.77628064    -0.23400
H471        H  0.74326917  0.96447269  0.77365074     0.17800
C472        C  0.66928789  0.94707434  0.80074579     0.25800
C473        C  0.63290437  0.96149366  0.79567312    -0.11900
C474        C  0.60845705  0.94749565  0.75819706    -0.25900
C475        C  0.62071625  0.91837133  0.72599909     0.36700
C476        C  0.65760002  0.90465818  0.72998352    -0.27600
F477        F  0.69152325  0.96038145  0.83890754    -0.19700
H478        H  0.62358029  0.98332876  0.82158178     0.16000
F479        F  0.59760438  0.90439889  0.68927417    -0.23400
H480        H  0.66704705  0.88359142  0.70306221     0.17800
C481        C  0.95369282  0.74627685  0.76621038    -0.27400
C482        C  0.92833770  0.71668117  0.75782862     0.06200
C483        C  0.88971546  0.72506381  0.75313935     0.25800
C484        C  0.87710530  0.76239007  0.75556208    -0.11900
C485        C  0.90267756  0.79215168  0.76234623    -0.25900
C486        C  0.94124891  0.78350370  0.76827311     0.36600
C487        C  0.94253589  0.67735595  0.75436703     0.06200
F488        F  0.86423896  0.69735426  0.74445664    -0.19700
H489        H  0.84734796  0.76801318  0.75085018     0.16000
F490        F  0.96723474  0.81085129  0.77637574    -0.23400
H491        H  0.98338904  0.74056709  0.77145604     0.17800
C492        C  0.97451184  0.66858255  0.72476858     0.25800
C493        C  0.98829202  0.63170668  0.72315871    -0.11900
C494        C  0.97001021  0.60275666  0.74993336    -0.25900
C495        C  0.93795104  0.61137105  0.77915372     0.36700
C496        C  0.92462851  0.64835173  0.78165769    -0.27600
F497        F  0.99194792  0.69543658  0.69637939    -0.19700
H498        H  0.01282566  0.62560826  0.70008856     0.16000
F499        F  0.92018251  0.58425279  0.80666734    -0.23400
H500        H  0.90058225  0.65440365  0.80564250     0.17800
C501        C  0.56138480  0.47867277  0.97256633    -0.27400
C502        C  0.52755771  0.47529798  0.50001245     0.06200
C503        C  0.52194279  0.44335088  0.53110254     0.25800
C504        C  0.54936113  0.41521419  0.53381527    -0.11900
C505        C  0.58320939  0.41886433  0.50675872    -0.25900
C506        C  0.58916649  0.45093775  0.97627277     0.36600
C507        C  0.49805512  0.50473438  0.49548921     0.06200
F508        F  0.49036127  0.43973140  0.55986434    -0.19700
H509        H  0.54449398  0.39088832  0.55793925     0.16000
F510        F  0.62129264  0.45485783  0.94871413    -0.23400
H511        H  0.56610589  0.50255572  0.94762316     0.17800
C512        C  0.50705549  0.54318020  0.99921286     0.25800
C513        C  0.47879335  0.57044469  0.99559750    -0.11900
C514        C  0.44092166  0.56005453  0.48852619    -0.25900
C515        C  0.43208370  0.52150348  0.48416061     0.36700
C516        C  0.46041180  0.49433622  0.48735488    -0.27600
F517        F  0.54299512  0.55444674  0.00790288    -0.19700
H518        H  0.48662625  0.59973825  0.99920677     0.16000
F519        F  0.39618182  0.50976443  0.47648173    -0.23400
H520        H  0.45287871  0.46500387  0.48315796     0.17800
C521        C  0.76363814  0.42895107  0.54148789    -0.27400
C522        C  0.79095432  0.40847233  0.01449155     0.06200
C523        C  0.78061307  0.37377100  0.99244093     0.25800
C524        C  0.74344723  0.36087896  0.99577738    -0.11900
C525        C  0.71581765  0.38252496  0.52030730    -0.25900
C526        C  0.72644697  0.41642585  0.54401376     0.36600
C527        C  0.82974022  0.42386699  0.00892512     0.06200
F528        F  0.80587120  0.35317184  0.96546792    -0.19700
H529        H  0.73590738  0.33474010  0.97705827     0.16000
F530        F  0.70086767  0.43757122  0.56965964    -0.23400
H531        H  0.77102891  0.45504707  0.56040742     0.17800
C532        C  0.83570386  0.46202793  0.49641234     0.25800
C533        C  0.87223927  0.47639249  0.49232304    -0.11900
C534        C  0.90369551  0.45306577  0.49986266    -0.25900
C535        C  0.89769480  0.41473427  0.01158885     0.36700
C536        C  0.86117248  0.40055447  0.01645263    -0.27600
F537        F  0.80623320  0.48538374  0.48707448    -0.19700
H538        H  0.87586476  0.50588697  0.48288190     0.16000
F539        F  0.92701118  0.39090034  0.01944639    -0.23400
H540        H  0.85751650  0.37126669  0.02698965     0.17800
C541        C  0.53625678  0.16522895  0.50783662    -0.27400
C542        C  0.57516364  0.17124585  0.00283214     0.06200
C543        C  0.59903912  0.13995345  0.99744044     0.25800
C544        C  0.58411847  0.10354694  0.99689645    -0.11900
C545        C  0.54511546  0.09745865  0.50156154    -0.25900
C546        C  0.52126272  0.12887363  0.50699282     0.36600
C547        C  0.59036477  0.21019534  0.00332224     0.06200
F548        F  0.63669819  0.14455761  0.99143538    -0.19700
H549        H  0.60328042  0.08003828  0.99245012     0.16000
F550        F  0.48348042  0.12466941  0.51193720    -0.23400
H551        H  0.51732147  0.18885905  0.51291224     0.17800
C552        C  0.57358898  0.23852301  0.47329866     0.25800
C553        C  0.58639790  0.27558045  0.47624637    -0.11900
C554        C  0.61665812  0.28513478  0.50826463    -0.25900
C555        C  0.63427017  0.25672212  0.03719873     0.36700
C556        C  0.62099185  0.21963669  0.03495377    -0.27600
F557        F  0.54506962  0.23030166  0.44056955    -0.19700
H558        H  0.57273546  0.29692501  0.45302529     0.16000
F559        F  0.66313340  0.26505796  0.06928842    -0.23400
H560        H  0.63408637  0.19841819  0.05895870     0.17800
loop_ 
_geom_bond_atom_site_label_1 
_geom_bond_atom_site_label_2 
_geom_bond_distance 
_geom_bond_site_symmetry_2 
_ccdc_geom_bond_type 
C1            N2   1.362       .  A
C1          N286   1.359       .  A
C1          C554   1.478       .  S
N2            C3   1.362       .  A
C3          N284   1.358       .  A
C3          C525   1.480       .  S
N4            C5   1.355       .  A
N4          C283   1.358       .  A
C5            N6   1.355       .  A
C5          C225   1.473       .  S
N6          C281   1.359       .  A
C7            N8   1.364       .  A
C7           N12   1.360       .  A
C7          C185   1.491       .  S
N8            C9   1.364       .  A
C9           N10   1.357       .  A
C9          C205   1.488       .  S
N10          C11   1.354       .  A
C11          N12   1.356       .  A
C11         C165   1.485       .  S
C13          N14   1.359       .  A
C13          N18   1.360       .  A
C13         C134   1.484       .  S
N14          C15   1.358       .  A
C15          N16   1.358       .  A
C15         C234   1.486       .  S
N16          C17   1.357       .  A
C17          N18   1.358       .  A
C17         C145   1.472       .  S
O19         Ni27   1.918       .  S
O19          C29   1.280       .  A
O20         Ni27   1.917       .  S
O20          C30   1.282   1_565  A
O21         Ni27   1.916       .  S
O21          C31   1.280       .  A
O22         Ni27   1.920       .  S
O22          C32   1.281       .  A
O23         Ni28   1.912       .  S
O23          C32   1.278   1_545  A
O24         Ni28   1.916       .  S
O24          C31   1.279   1_545  A
O25         Ni28   1.922       .  S
O25          C30   1.283       .  A
O26         Ni28   1.919   1_565  S
O26          C29   1.282       .  A
Ni27        Ni28   2.391   1_565  S
C29         C194   1.473       .  S
C30         C105   1.488       .  S
C31          C46   1.457       .  S
C32          C45   1.456       .  S
O33         Ni41   1.912   1_545  S
O33          C43   1.281       .  A
O34         Ni41   1.910       .  S
O34          C44   1.280       .  A
O35        Ni321   1.918       .  S
O35          C45   1.280       .  A
O36         Ni41   1.918       .  S
O36          C46   1.280       .  A
O37         Ni42   1.915       .  S
O37          C46   1.279   1_545  A
O38        Ni322   1.913       .  S
O38          C45   1.278   1_545  A
O39         Ni42   1.921   1_565  S
O39          C44   1.283       .  A
O40        Ni322   1.923       .  S
O40         C323   1.283       .  A
Ni41        O315   1.918   1_554  S
Ni41        Ni42   2.390   1_565  S
Ni42        O318   1.913   1_554  S
Ni42        O320   1.923       .  S
C43         C265   1.486       .  S
C43         O320   1.283       .  A
C44         C125   1.478   1_554  S
C47          N48   1.357       .  A
C47          N52   1.359       .  A
C47         C114   1.476       .  S
N48          C49   1.356       .  A
C49          N50   1.357       .  A
C49         C174   1.479       .  S
N50          C51   1.360       .  A
C51          N52   1.362       .  A
C51          C94   1.483       .  S
O53         Ni61   1.917       .  S
O53          C63   1.280       .  A
O54         Ni61   1.915       .  S
O54          C64   1.279       .  A
O55         Ni61   1.921       .  S
O55          C65   1.282   1_455  A
O56         Ni61   1.917       .  S
O56          C66   1.282       .  A
O57         Ni62   1.914       .  S
O57          C66   1.281   1_655  A
O58         Ni62   1.916       .  S
O58          C65   1.281       .  A
O59         Ni62   1.916       .  S
O59          C64   1.280   1_655  A
O60         Ni62   1.916       .  S
O60          C63   1.279   1_655  A
Ni61        Ni62   2.391   1_455  S
C63          C78   1.457       .  S
C64          C77   1.456       .  S
C65         C214   1.477       .  S
C66          C85   1.476       .  S
O67         Ni75   1.918   1_554  S
O67          C77   1.281       .  A
O68        Ni355   1.921       .  S
O68          C78   1.281       .  A
O69         Ni75   1.908       .  S
O69          C79   1.280       .  A
O70        Ni355   1.910   1_655  S
O70         C360   1.280       .  A
O71         Ni76   1.928       .  S
O71          C80   1.285       .  A
O72        Ni356   1.928   1_455  S
O72         C359   1.284       .  A
O73        Ni356   1.912       .  S
O73          C78   1.278   1_655  A
O74         Ni76   1.913   1_554  S
O74          C77   1.278   1_655  A
Ni75        O348   1.921       .  S
Ni75        O350   1.910   1_455  S
Ni75        Ni76   2.389   1_455  S
Ni76        O352   1.928   1_655  S
Ni76        O353   1.912       .  S
C79         C154   1.486       .  S
C79         O352   1.284       .  A
C80         C254   1.487       .  S
C80         O350   1.280       .  A
C81          C82   1.405       .  A
C81          C86   1.397       .  A
C81          H91   1.085       .  S
C82          C87   1.483       .  S
C82          C83   1.407       .  A
C83          C84   1.397       .  A
C83          F88   1.357       .  S
C84          C85   1.404       .  A
C84          H89   1.085       .  S
C85          C86   1.407       .  A
C86          F90   1.358   1_455  S
C87          C92   1.406       .  A
C87          C96   1.404       .  A
C92          C93   1.397       .  A
C92          F97   1.358       .  S
C93          C94   1.406       .  A
C93          H98   1.084       .  S
C94          C95   1.409       .  A
C95          C96   1.398       .  A
C95          F99   1.357       .  S
C96         H100   1.084       .  S
C101        C102   1.404       .  A
C101        C106   1.401       .  A
C101        H111   1.083       .  S
C102        C107   1.486       .  S
C102        C103   1.407       .  A
C103        C104   1.397       .  A
C103        F108   1.358   1_545  S
C104        C105   1.407       .  A
C104        H109   1.083   1_545  S
C105        C106   1.411       .  A
C106        F110   1.357       .  S
C107        C112   1.409       .  A
C107        C116   1.404       .  A
C112        C113   1.402       .  A
C112        F117   1.357       .  S
C113        C114   1.404       .  A
C113        H118   1.083       .  S
C114        C115   1.406       .  A
C115        C116   1.396       .  A
C115        F119   1.358       .  S
C116        H120   1.083       .  S
C121        C126   1.396       .  A
C121        C402   1.405   1_554  A
C121        H131   1.083       .  S
C122        C127   1.486       .  S
C122        C123   1.408       .  A
C122        C401   1.405       .  A
C123        C124   1.399       .  A
C123        F128   1.357       .  S
C124        C405   1.404       .  A
C124        H129   1.083       .  S
C125        C126   1.407   1_556  A
C125        C404   1.404       .  A
C126        F130   1.358       .  S
C127        C136   1.405       .  A
C127        C412   1.407       .  A
C132        C133   1.397       .  A
C132        C407   1.407       .  A
C132        F137   1.358       .  S
C133        C134   1.406       .  A
C133        H138   1.083       .  S
C134        C415   1.409       .  A
C135        C136   1.398       .  A
C135        C414   1.409       .  A
C135        F139   1.357       .  S
C136        H140   1.083       .  S
C141        C146   1.397       .  A
C141        C422   1.406   1_554  A
C141        H151   1.085       .  S
C142        C147   1.488       .  S
C142        C143   1.410       .  A
C142        C421   1.406       .  A
C143        C144   1.400       .  A
C143        F148   1.357       .  S
C144        C425   1.402       .  A
C144        H149   1.085       .  S
C145        C146   1.404   1_556  A
C145        C424   1.402       .  A
C146        F150   1.358       .  S
C147        C156   1.406       .  A
C147        C432   1.407       .  A
C152        C153   1.396       .  A
C152        C427   1.407       .  A
C152        F157   1.358   1_556  S
C153        C154   1.407       .  A
C153        H158   1.085   1_556  S
C154        C435   1.409       .  A
C155        C156   1.401       .  A
C155        C434   1.409       .  A
C155        F159   1.357       .  S
C156        H160   1.085       .  S
C161        C162   1.405       .  A
C161        C166   1.398       .  A
C161        H171   1.084   1_565  S
C162        C167   1.486   1_665  S
C162        C163   1.407       .  A
C163        C164   1.396       .  A
C163        F168   1.358   1_655  S
C164        C165   1.406       .  A
C164        H169   1.084       .  S
C165        C166   1.410       .  A
C166        F170   1.356       .  S
C167        C172   1.409       .  A
C167        C176   1.405       .  A
C172        C173   1.399       .  A
C172        F177   1.358   1_455  S
C173        C174   1.405       .  A
C173        H178   1.084       .  S
C174        C175   1.407       .  A
C175        C176   1.395       .  A
C175        F179   1.357       .  S
C176        H180   1.084   1_545  S
C181        C182   1.403       .  A
C181        C186   1.393       .  A
C181        H191   1.083       .  S
C182        C187   1.490       .  S
C182        C183   1.409       .  A
C183        C184   1.404       .  A
C183        F188   1.357       .  S
C184        C185   1.409       .  A
C184        H189   1.083       .  S
C185        C186   1.411       .  A
C186        F190   1.356       .  S
C187        C192   1.410       .  A
C187        C196   1.408       .  A
C192        C193   1.397       .  A
C192        F197   1.358       .  S
C193        C194   1.401       .  A
C193        H198   1.083       .  S
C194        C195   1.405       .  A
C195        C196   1.402       .  A
C195        F199   1.357       .  S
C196        H200   1.082       .  S
C201        C202   1.403       .  A
C201        C206   1.396       .  A
C201        H211   1.083       .  S
C202        C207   1.488       .  S
C202        C203   1.409       .  A
C203        C204   1.401       .  A
C203        F208   1.357       .  S
C204        C205   1.406       .  A
C204        H209   1.083       .  S
C205        C206   1.413       .  A
C206        F210   1.358       .  S
C207        C212   1.411       .  A
C207        C216   1.405       .  A
C212        C213   1.399       .  A
C212        F217   1.358       .  S
C213        C214   1.403       .  A
C213        H218   1.083   1_655  S
C214        C215   1.406       .  A
C215        C216   1.398       .  A
C215        F219   1.357       .  S
C216        H220   1.082       .  S
C221        C226   1.398       .  A
C221        C502   1.406       .  A
C221        H231   1.082       .  S
C222        C227   1.485   1_554  S
C222        C223   1.409       .  A
C222        C501   1.406   1_554  A
C223        C224   1.397       .  A
C223        F228   1.357       .  S
C224        C225   1.402       .  A
C224        H229   1.083       .  S
C225        C506   1.405   1_554  A
C226        C505   1.405       .  A
C226        F230   1.358       .  S
C227        C236   1.404       .  A
C227        C512   1.407       .  A
C232        C233   1.398       .  A
C232        C507   1.407       .  A
C232        F237   1.358       .  S
C233        C514   1.408       .  A
C233        H238   1.082       .  S
C234        C235   1.410       .  A
C234        C513   1.408       .  A
C235        C236   1.397       .  A
C235        F239   1.357       .  S
C236        H240   1.082       .  S
C241        C246   1.396       .  A
C241        C522   1.405       .  A
C241        H251   1.084       .  S
C242        C247   1.490       .  S
C242        C243   1.411       .  A
C242        C521   1.405       .  A
C243        C244   1.401       .  A
C243        F248   1.357       .  S
C244        C525   1.404       .  A
C244        H249   1.084       .  S
C245        C283   1.480       .  S
C245        C246   1.408       .  A
C245        C524   1.404   1_554  A
C246        F250   1.358       .  S
C247        C256   1.404       .  A
C247        C532   1.410       .  A
C252        C253   1.399       .  A
C252        C527   1.410   1_556  A
C252        F257   1.357       .  S
C253        C254   1.405       .  A
C253        H258   1.084       .  S
C254        C535   1.412   1_556  A
C255        C256   1.398       .  A
C255        C534   1.412       .  A
C255        F259   1.357       .  S
C256        H260   1.084       .  S
C261        C266   1.398       .  A
C261        C542   1.405       .  A
C261        H271   1.084       .  S
C262        C267   1.486       .  S
C262        C263   1.406       .  A
C262        C541   1.405       .  A
C263        C264   1.398       .  A
C263        F268   1.357       .  S
C264        C545   1.408       .  A
C264        H269   1.084       .  S
C265        C266   1.409       .  A
C265        C544   1.408   1_554  A
C266        F270   1.357       .  S
C267        C276   1.407       .  A
C267        C552   1.407       .  A
C272        C273   1.396       .  A
C272        C547   1.407   1_556  A
C272        F277   1.358       .  S
C273        C274   1.404   1_556  A
C273        H278   1.084       .  S
C274        C281   1.478       .  S
C274        C555   1.406       .  A
C275        C276   1.401       .  A
C275        C554   1.406       .  A
C275        F279   1.357       .  S
C276        H280   1.084       .  S
C281        N282   1.362       .  A
N282        C283   1.362       .  A
N284        C285   1.355       .  A
C285        N286   1.355       .  A
C285        C505   1.473       .  S
C287        N288   1.364       .  A
C287        N292   1.360       .  A
C287        C465   1.491       .  S
N288        C289   1.364       .  A
C289        N290   1.357       .  A
C289        C485   1.488       .  S
N290        C291   1.354       .  A
C291        N292   1.356       .  A
C291        C445   1.485       .  S
C293        N294   1.359       .  A
C293        N298   1.360       .  A
C293        C414   1.484       .  S
N294        C295   1.358       .  A
C295        N296   1.358       .  A
C295        C514   1.486       .  S
N296        C297   1.357       .  A
C297        N298   1.358       .  A
C297        C425   1.472       .  S
O299       Ni307   1.918       .  S
O299        C309   1.280       .  A
O300       Ni307   1.917       .  S
O300        C310   1.282   1_565  A
O301       Ni307   1.916       .  S
O301        C311   1.280       .  A
O302       Ni307   1.920       .  S
O302        C312   1.281       .  A
O303       Ni308   1.912       .  S
O303        C312   1.278   1_545  A
O304       Ni308   1.916       .  S
O304        C311   1.279   1_545  A
O305       Ni308   1.922       .  S
O305        C310   1.283       .  A
O306       Ni308   1.919   1_565  S
O306        C309   1.282       .  A
Ni307      Ni308   2.391   1_565  S
C309        C474   1.473       .  S
C310        C385   1.488       .  S
C311        C326   1.457       .  S
C312        C325   1.456       .  S
O313       Ni321   1.912   1_545  S
O313        C323   1.281       .  A
O314       Ni321   1.910       .  S
O314        C324   1.280       .  A
O315        C325   1.280       .  A
O316       Ni321   1.918       .  S
O316        C326   1.280       .  A
O317       Ni322   1.915       .  S
O317        C326   1.279   1_545  A
O318        C325   1.278   1_545  A
O319       Ni322   1.921   1_565  S
O319        C324   1.283       .  A
Ni321      Ni322   2.390   1_565  S
C323        C545   1.486       .  S
C324        C405   1.478       .  S
C327        N328   1.357       .  A
C327        N332   1.359       .  A
C327        C394   1.476       .  S
N328        C329   1.356       .  A
C329        N330   1.357       .  A
C329        C454   1.479       .  S
N330        C331   1.360       .  A
C331        N332   1.362       .  A
C331        C374   1.483       .  S
O333       Ni341   1.917       .  S
O333        C343   1.280       .  A
O334       Ni341   1.915       .  S
O334        C344   1.279       .  A
O335       Ni341   1.921       .  S
O335        C345   1.282   1_455  A
O336       Ni341   1.917       .  S
O336        C346   1.282       .  A
O337       Ni342   1.914       .  S
O337        C346   1.281   1_655  A
O338       Ni342   1.916       .  S
O338        C345   1.281       .  A
O339       Ni342   1.916       .  S
O339        C344   1.280   1_655  A
O340       Ni342   1.916       .  S
O340        C343   1.279   1_655  A
Ni341      Ni342   2.391   1_455  S
C343        C358   1.457       .  S
C344        C357   1.456       .  S
C345        C494   1.477       .  S
C346        C365   1.476       .  S
O347       Ni355   1.918       .  S
O347        C357   1.281       .  A
O348        C358   1.281       .  A
O349       Ni355   1.908       .  S
O349        C359   1.280       .  A
O351       Ni356   1.928       .  S
O351        C360   1.285       .  A
O353        C358   1.278   1_655  A
O354       Ni356   1.913       .  S
O354        C357   1.278   1_655  A
Ni355      Ni356   2.389   1_455  S
C359        C434   1.486       .  S
C360        C534   1.487       .  S
C361        C362   1.405       .  A
C361        C366   1.397       .  A
C361        H371   1.085       .  S
C362        C367   1.483       .  S
C362        C363   1.407       .  A
C363        C364   1.397       .  A
C363        F368   1.357       .  S
C364        C365   1.404       .  A
C364        H369   1.085       .  S
C365        C366   1.407       .  A
C366        F370   1.358   1_455  S
C367        C372   1.406       .  A
C367        C376   1.404       .  A
C372        C373   1.397       .  A
C372        F377   1.358       .  S
C373        C374   1.406       .  A
C373        H378   1.084       .  S
C374        C375   1.409       .  A
C375        C376   1.398       .  A
C375        F379   1.357       .  S
C376        H380   1.084       .  S
C381        C382   1.404       .  A
C381        C386   1.401       .  A
C381        H391   1.083       .  S
C382        C387   1.486       .  S
C382        C383   1.407       .  A
C383        C384   1.397       .  A
C383        F388   1.358   1_545  S
C384        C385   1.407       .  A
C384        H389   1.083   1_545  S
C385        C386   1.411       .  A
C386        F390   1.357       .  S
C387        C392   1.409       .  A
C387        C396   1.404       .  A
C392        C393   1.402       .  A
C392        F397   1.357       .  S
C393        C394   1.404       .  A
C393        H398   1.083       .  S
C394        C395   1.406       .  A
C395        C396   1.396       .  A
C395        F399   1.358       .  S
C396        H400   1.083       .  S
C401        C406   1.396       .  A
C401        H411   1.083       .  S
C402        C407   1.486       .  S
C402        C403   1.408       .  A
C403        C404   1.399       .  A
C403        F408   1.357       .  S
C404        H409   1.083       .  S
C405        C406   1.407       .  A
C406        F410   1.358       .  S
C407        C416   1.405   1_556  A
C412        C413   1.397       .  A
C412        F417   1.358       .  S
C413        C414   1.406       .  A
C413        H418   1.083       .  S
C415        C416   1.398   1_556  A
C415        F419   1.357   1_556  S
C416        H420   1.083       .  S
C421        C426   1.397       .  A
C421        H431   1.085       .  S
C422        C427   1.488       .  S
C422        C423   1.410       .  A
C423        C424   1.400       .  A
C423        F428   1.357       .  S
C424        H429   1.085       .  S
C425        C426   1.404       .  A
C426        F430   1.358       .  S
C427        C436   1.406       .  A
C432        C433   1.396       .  A
C432        F437   1.358       .  S
C433        C434   1.407       .  A
C433        H438   1.085       .  S
C435        C436   1.401       .  A
C435        F439   1.357       .  S
C436        H440   1.085       .  S
C441        C442   1.405       .  A
C441        C446   1.398       .  A
C441        H451   1.084   1_565  S
C442        C447   1.486   1_665  S
C442        C443   1.407       .  A
C443        C444   1.396       .  A
C443        F448   1.358   1_655  S
C444        C445   1.406       .  A
C444        H449   1.084       .  S
C445        C446   1.410       .  A
C446        F450   1.356       .  S
C447        C452   1.409       .  A
C447        C456   1.405       .  A
C452        C453   1.399       .  A
C452        F457   1.358   1_455  S
C453        C454   1.405       .  A
C453        H458   1.084       .  S
C454        C455   1.407       .  A
C455        C456   1.395       .  A
C455        F459   1.357       .  S
C456        H460   1.084   1_545  S
C461        C462   1.403       .  A
C461        C466   1.393       .  A
C461        H471   1.083       .  S
C462        C467   1.490       .  S
C462        C463   1.409       .  A
C463        C464   1.404       .  A
C463        F468   1.357       .  S
C464        C465   1.409       .  A
C464        H469   1.083       .  S
C465        C466   1.411       .  A
C466        F470   1.356       .  S
C467        C472   1.410       .  A
C467        C476   1.408       .  A
C472        C473   1.397       .  A
C472        F477   1.358       .  S
C473        C474   1.401       .  A
C473        H478   1.083       .  S
C474        C475   1.405       .  A
C475        C476   1.402       .  A
C475        F479   1.357       .  S
C476        H480   1.082       .  S
C481        C482   1.403       .  A
C481        C486   1.396       .  A
C481        H491   1.083       .  S
C482        C487   1.488       .  S
C482        C483   1.409       .  A
C483        C484   1.401       .  A
C483        F488   1.357       .  S
C484        C485   1.406       .  A
C484        H489   1.083       .  S
C485        C486   1.413       .  A
C486        F490   1.358       .  S
C487        C492   1.411       .  A
C487        C496   1.405       .  A
C492        C493   1.399       .  A
C492        F497   1.358       .  S
C493        C494   1.403       .  A
C493        H498   1.083   1_655  S
C494        C495   1.406       .  A
C495        C496   1.398       .  A
C495        F499   1.357       .  S
C496        H500   1.082       .  S
C501        C506   1.398       .  A
C501        H511   1.082       .  S
C502        C507   1.485       .  S
C502        C503   1.409       .  A
C503        C504   1.397       .  A
C503        F508   1.357       .  S
C504        C505   1.402       .  A
C504        H509   1.083       .  S
C506        F510   1.358       .  S
C507        C516   1.404       .  A
C512        C513   1.398       .  A
C512        F517   1.358   1_556  S
C513        H518   1.082       .  S
C514        C515   1.410       .  A
C515        C516   1.397       .  A
C515        F519   1.357       .  S
C516        H520   1.082       .  S
C521        C526   1.396       .  A
C521        H531   1.084       .  S
C522        C527   1.490       .  S
C522        C523   1.411   1_554  A
C523        C524   1.401       .  A
C523        F528   1.357       .  S
C524        H529   1.084       .  S
C525        C526   1.408       .  A
C526        F530   1.358       .  S
C527        C536   1.404       .  A
C532        C533   1.399       .  A
C532        F537   1.357       .  S
C533        C534   1.405       .  A
C533        H538   1.084       .  S
C535        C536   1.398       .  A
C535        F539   1.357       .  S
C536        H540   1.084       .  S
C541        C546   1.398       .  A
C541        H551   1.084       .  S
C542        C547   1.486       .  S
C542        C543   1.406   1_554  A
C543        C544   1.398       .  A
C543        F548   1.357       .  S
C544        H549   1.084       .  S
C545        C546   1.409       .  A
C546        F550   1.357       .  S
C547        C556   1.407       .  A
C552        C553   1.396       .  A
C552        F557   1.358       .  S
C553        C554   1.404       .  A
C553        H558   1.084       .  S
C555        C556   1.401       .  A
C555        F559   1.357       .  S
C556        H560   1.084       .  S
