geometry optimzed in LAMMPS
_audit_creation_date              2020-12-01 
_audit_creation_method            'lammps2cif' 
_symmetry_space_group_name_H-M    'P1' 
_symmetry_Int_Tables_number       1 
_symmetry_cell_setting            triclinic 
loop_ 
_symmetry_equiv_pos_as_xyz 
  x,y,z 
_cell_length_a                    28.08808837 
_cell_length_b                    28.1239227285154 
_cell_length_c                    30.15528297128845 
_cell_angle_alpha                 90.25418204813379 
_cell_angle_beta                  89.9480966028543 
_cell_angle_gamma                 83.02680049635046 
loop_ 
_atom_site_label 
_atom_site_type_symbol 
_atom_site_fract_x 
_atom_site_fract_y 
_atom_site_fract_z 
_atom_site_charge 
C1          C  0.14872000  0.00348792  0.09423395     0.43100
N2          N  0.07595543  0.99668069  0.07760027     0.02000
C3          C  0.99443707  0.89491520  0.88742891    -0.05900
H4          H  0.08555975  0.03952996  0.85777325     0.07500
C5          C  0.95409505  0.14479289  0.94573593    -0.06200
Co6        Co  0.06940481  0.93818945  0.99574536     0.74200
N7          N  0.07064302  0.00179674  0.91670727    -0.25400
Co8        Co  0.99643785  0.00091962  0.91751540     0.74100
C9          C  0.97773329  0.15069460  0.90313603     0.43200
N10         N  0.96355080  0.09492092  0.05186095     0.01600
N11         N  0.98422658  0.07577566  0.91998718     0.01700
N12         N  0.04251612  0.85599170  0.93897339    -0.46300
H13         H  0.17749888  0.95936862  0.03347584     0.07500
N14         N  0.09820486  0.97864360  0.94694282     0.02000
N15         N  0.92246585  0.99942101  0.92095803     0.01700
C16         C  0.84973643  0.98747508  0.90638571     0.43300
N17         N  0.99096615  0.07039753  0.08140054    -0.24900
C18         C  0.04263345  0.85217687  0.05185118    -0.05800
N19         N  0.10302077  0.01395417  0.10821044    -0.46000
N20         N  0.89561858  0.97909263  0.89212106    -0.46200
C21         C  0.01597093  0.84665889  0.09295384     0.43100
N22         N  0.03623723  0.90268133  0.94643194     0.02000
N23         N  0.92819085  0.99591288  0.08157881    -0.24900
N24         N  0.10138965  0.97436825  0.04528619    -0.25400
N25         N  0.90024509  0.02010039  0.05222714     0.01600
H26         H  0.91388716  0.95664530  0.14019126     0.07500
H27         H  0.82188826  0.03095662  0.96859826     0.07500
N28         N  0.00855715  0.92637102  0.91662971    -0.25400
N29         N  0.95914324  0.09748377  0.95281063    -0.25100
N30         N  0.01310561  0.92146084  0.07715692     0.02000
C31         C  0.14794056  0.00764551  0.90309230     0.43400
C32         C  0.00612716  0.10090103  0.11084012    -0.06300
N33         N  0.89709026  0.02151134  0.95342085    -0.25000
H34         H  0.93500892  0.17086723  0.96749753     0.07500
N35         N  0.14432833  0.98093785  0.93985476    -0.46300
H36         H  0.02786001  0.09074843  0.13964640     0.07500
C37         C  0.85163911  0.99379330  0.09830438     0.43200
C38         C  0.14794043  0.97645683  0.05309325    -0.05800
Co39       Co  0.00208304  0.99601166  0.08025901     0.73800
N40         N  0.95870690  0.14163693  0.05976452    -0.46000
C41         C  0.01678582  0.84802111  0.90258944     0.43500
N42         N  0.99924327  0.89133019  0.10677571    -0.46000
Co43       Co  0.92926250  0.05924644  0.00260223     0.73900
C44         C  0.85085388  0.01595737  0.94727845    -0.06300
C45         C  0.09865790  0.02081635  0.88726316    -0.05900
N46         N  0.03883709  0.89949681  0.04485788    -0.25400
N47         N  0.99604550  0.10621508  0.88956433    -0.46200
H48         H  0.97257393  0.90407610  0.85852037     0.07500
C49         C  0.90075459  0.97737617  0.11172219    -0.06300
Cl50       Cl  0.99929195  0.99863848  0.99902177    -0.49300
C51         C  0.98457971  0.14827555  0.09656867     0.43200
H52         H  0.06273924  0.82530837  0.03130321     0.07500
N53         N  0.85409236  0.02003549  0.06118103    -0.46000
C54         C  0.02084786  0.53685369  0.26429911     0.80900
N55         N  0.01692988  0.49445539  0.24368539    -0.77400
C56         C  0.01849582  0.45298473  0.26690893     0.83300
N57         N  0.02546159  0.45412612  0.31134191    -0.77400
C58         C  0.03039710  0.49585688  0.33264453     0.83400
N59         N  0.02766298  0.53719987  0.30905188    -0.79100
C60         C  0.02139763  0.53759786  0.73531382     0.80900
N61         N  0.01682025  0.49630822  0.75695791    -0.77400
C62         C  0.01657881  0.45455943  0.73428012     0.83300
N63         N  0.01966904  0.45484516  0.68911649    -0.77400
C64         C  0.02369852  0.49643581  0.66710892     0.83400
N65         N  0.02529706  0.53744153  0.69057834    -0.79100
C66         C  0.45555049  0.99742546  0.26624242     0.80900
N67         N  0.45846368  0.98993846  0.31061883    -0.77400
C68         C  0.50144764  0.98419761  0.33168478     0.83300
N69         N  0.54222712  0.98605354  0.30791301    -0.77400
C70         C  0.54002901  0.99344943  0.26339989     0.83400
N71         N  0.49675723  0.99877337  0.24284081    -0.79100
C72         C  0.46075937  0.98290215  0.73497382     0.80900
N73         N  0.50319960  0.97532968  0.75683599    -0.77400
C74         C  0.54525454  0.96841651  0.73428070     0.83300
N75         N  0.54477707  0.96982529  0.68926551    -0.77400
C76         C  0.50262948  0.97700994  0.66674957     0.83400
N77         N  0.46059423  0.98300510  0.68980144    -0.79100
C78         C  0.52972859  0.00573327  0.54631573    -0.11200
C79         C  0.49952635  0.97785442  0.52361489     0.11300
C80         C  0.47038690  0.94945377  0.54783179    -0.03000
C81         C  0.47187160  0.95077724  0.59457157    -0.05800
C82         C  0.50240819  0.97847787  0.61745262    -0.16600
C83         C  0.53147175  0.00701038  0.59294376     0.02400
C84         C  0.49926053  0.97953576  0.47431802     0.12300
C85         C  0.43885459  0.91710033  0.52428442     0.62900
H86         H  0.44997321  0.92917422  0.61370411     0.12300
C87         C  0.56303502  0.03999864  0.61558541     0.56000
H88         H  0.55195400  0.02677831  0.52693138     0.08100
C89         C  0.47183839  0.01688872  0.45094123    -0.05700
C90         C  0.47351500  0.01648401  0.40437754    -0.06400
C91         C  0.50269863  0.98109369  0.38068330    -0.16000
C92         C  0.53093570  0.94417791  0.40403155    -0.01600
C93         C  0.52857020  0.94404660  0.45075750    -0.09100
C94         C  0.44147841  0.05741363  0.47502403     0.65100
H95         H  0.45266016  0.04464024  0.38592740     0.10600
C96         C  0.56249599  0.90465064  0.37986240     0.63500
H97         H  0.54988863  0.91637908  0.46944212     0.08000
F98         F  0.58164832  0.07008846  0.58565914    -0.19500
F99         F  0.60113532  0.01320294  0.63618195    -0.15700
F100        F  0.53654812  0.06834182  0.64665307    -0.19200
F101        F  0.46733041  0.88199203  0.50094783    -0.22600
F102        F  0.40833017  0.94333658  0.49504499    -0.24100
F103        F  0.41110362  0.89482492  0.55383327    -0.18100
F104        F  0.59944017  0.92357586  0.35852880    -0.20600
F105        F  0.53559569  0.88303969  0.34900385    -0.21700
F106        F  0.58264625  0.86964582  0.40866451    -0.18900
F107        F  0.41661559  0.08913745  0.44578736    -0.19000
F108        F  0.47055237  0.08278314  0.50062185    -0.22800
F109        F  0.40841940  0.03921545  0.50210204    -0.24400
C110        C  0.00326302  0.52920085  0.54536944    -0.11200
C111        C  0.03532843  0.49407829  0.52457140     0.11300
C112        C  0.06538078  0.46114423  0.55054336    -0.03000
C113        C  0.05996390  0.46265694  0.59702123    -0.05800
C114        C  0.02693497  0.49713040  0.61797202    -0.16600
C115        C  0.99826584  0.53142948  0.59174362     0.02400
C116        C  0.03523860  0.49233477  0.47533718     0.12300
C117        C  0.10352014  0.42537804  0.52921140     0.62900
H118        H  0.08222364  0.43743587  0.61752408     0.12300
C119        C  0.96091734  0.56892293  0.61203105     0.55100
H120        H  0.98145017  0.55451670  0.52458940     0.08100
C121        C  0.99988131  0.47084538  0.45166511    -0.05700
C122        C  0.99979219  0.47312059  0.40513680    -0.06400
C123        C  0.03357282  0.49615347  0.38172009    -0.16000
C124        C  0.06961468  0.51677625  0.40540505    -0.01600
C125        C  0.06937340  0.51500645  0.45211497    -0.09100
C126        C  0.96230256  0.44572620  0.47545213     0.65100
H127        H  0.97264041  0.45743732  0.38653315     0.10600
C128        C  0.10880539  0.53939135  0.38168933     0.63500
H129        H  0.09564458  0.53170096  0.47102306     0.08000
F130        F  0.93317994  0.59417618  0.57999808    -0.19500
F131        F  0.98305254  0.60166687  0.63644414    -0.15700
F132        F  0.93054662  0.54683073  0.63908926    -0.19200
F133        F  0.13672625  0.44966108  0.50778224    -0.22600
F134        F  0.08289074  0.39729272  0.49873285    -0.24100
F135        F  0.12766276  0.39539984  0.56025563    -0.18100
F136        F  0.08939238  0.58113692  0.36129844    -0.20600
F137        F  0.13045684  0.50797222  0.35018458    -0.21700
F138        F  0.14397347  0.55066412  0.41071290    -0.18900
F139        F  0.93278289  0.42537802  0.44597348    -0.19000
F140        F  0.93375379  0.47810759  0.50160252    -0.22800
F141        F  0.98443943  0.40963917  0.50195292    -0.24400
C142        C  0.02712566  0.35406238  0.82016354    -0.11200
C143        C  0.99771068  0.32256815  0.80139485     0.11300
C144        C  0.97369372  0.33483718  0.76096632    -0.03000
C145        C  0.98118863  0.37806302  0.74006429    -0.05800
C146        C  0.01115034  0.40948298  0.75853248    -0.16600
C147        C  0.03481674  0.39719269  0.79935475     0.02400
C148        C  0.99231887  0.27747508  0.82569053     0.12300
C149        C  0.94081527  0.30219760  0.73968519     0.62900
H150        H  0.96314628  0.38798588  0.70915503     0.12300
C151        C  0.06892586  0.42850251  0.82080589     0.55100
H152        H  0.04407193  0.34443480  0.85164730     0.08100
C153        C  0.02852583  0.23782116  0.82542297    -0.05700
C154        C  0.02192791  0.19731661  0.85103906    -0.06400
C155        C  0.98043797  0.19514900  0.87677857    -0.16000
C156        C  0.94315055  0.23432338  0.87524465    -0.01600
C157        C  0.95074564  0.27536840  0.85087712    -0.09100
C158        C  0.07431793  0.23868549  0.79878426     0.65100
H159        H  0.04986273  0.16718987  0.85184048     0.10600
C160        C  0.89468694  0.23349265  0.89746697     0.63500
H161        H  0.92392466  0.30649166  0.85123191     0.08000
F162        F  0.09477269  0.40506764  0.85502457    -0.19500
F163        F  0.04324855  0.46939811  0.83824016    -0.15700
F164        F  0.10150086  0.44103887  0.78981523    -0.19200
F165        F  0.90344057  0.29584145  0.76801039    -0.22600
F166        F  0.96638326  0.25815941  0.73032544    -0.24100
F167        F  0.92111220  0.32099671  0.70050826    -0.18100
F168        F  0.86029489  0.26722528  0.87924426    -0.20600
F169        F  0.89816931  0.24407276  0.94202241    -0.21700
F170        F  0.87863718  0.18923706  0.89201040    -0.18900
F171        F  0.10213942  0.19457368  0.79871029    -0.19000
F172        F  0.10119882  0.27197054  0.81681710    -0.22800
F173        F  0.06343871  0.25077764  0.75525306    -0.24400
C174        C  0.02964451  0.71437108  0.87514729    -0.11200
C175        C  0.02282383  0.71586279  0.82921869     0.11300
C176        C  0.01263810  0.76034102  0.80751253    -0.03000
C177        C  0.01098128  0.80249074  0.83286321    -0.05800
C178        C  0.01876020  0.80142320  0.87893199    -0.16600
C179        C  0.02808913  0.75644390  0.90069089     0.02400
C180        C  0.02395196  0.66986152  0.80519381     0.12300
C181        C  0.00319775  0.76322223  0.75789462     0.62900
H182        H  0.00403389  0.83673221  0.81649298     0.12300
C183        C  0.03610423  0.75214572  0.95043619     0.55100
H184        H  0.03653817  0.67960959  0.89075426     0.08100
C185        C  0.06735485  0.64361422  0.79054234    -0.05700
C186        C  0.06510449  0.60048060  0.76726702    -0.06400
C187        C  0.02123307  0.58267244  0.76009809    -0.16000
C188        C  0.97813479  0.60813248  0.77615114    -0.01600
C189        C  0.98026375  0.65166033  0.79851210    -0.09100
C190        C  0.11562176  0.66050952  0.80049823     0.65100
H191        H  0.09760210  0.57986284  0.75509954     0.10600
C192        C  0.93015985  0.58968305  0.76899264     0.63500
H193        H  0.94778472  0.67207002  0.81096484     0.08000
F194        F  0.03747830  0.70527678  0.96475392    -0.19500
F195        F  0.99925676  0.77921276  0.97293777    -0.15700
F196        F  0.07946585  0.76770916  0.96129488    -0.19200
F197        F  0.96293609  0.74153998  0.74780447    -0.22600
F198        F  0.04198672  0.74027756  0.73488323    -0.24100
F199        F  0.99548950  0.81014562  0.74332479    -0.18100
F200        F  0.93024130  0.54559646  0.78910288    -0.20600
F201        F  0.92204655  0.58497343  0.72409901    -0.21700
F202        F  0.89259357  0.62042119  0.78662179    -0.18900
F203        F  0.15309958  0.63069571  0.78159485    -0.19000
F204        F  0.12279337  0.66109197  0.84583473    -0.22800
F205        F  0.11710501  0.70613871  0.78417890    -0.24400
C206        C  0.98588959  0.32812782  0.23734469    -0.11200
C207        C  0.00272051  0.32345802  0.19368135     0.11300
C208        C  0.02308466  0.36154310  0.17360798    -0.03000
C209        C  0.02850533  0.40247645  0.19914188    -0.05800
C210        C  0.01257655  0.40726197  0.24340967    -0.16600
C211        C  0.98979669  0.36965571  0.26268366     0.02400
C212        C  0.99818460  0.27820751  0.16951374     0.12300
C213        C  0.03806452  0.35918683  0.12513331     0.62900
H214        H  0.04517840  0.43133958  0.18441992     0.12300
C215        C  0.96800755  0.37329927  0.30893583     0.55100
H216        H  0.96955823  0.29863835  0.25139272     0.08100
C217        C  0.03295026  0.23773083  0.17346023    -0.05700
C218        C  0.02765542  0.19690506  0.14783323    -0.06400
C219        C  0.98796529  0.19457971  0.11980327    -0.16000
C220        C  0.95225257  0.23495505  0.11703949    -0.01600
C221        C  0.95831410  0.27621105  0.14204157    -0.09100
C222        C  0.07476805  0.23727939  0.20547437     0.65100
H223        H  0.05464379  0.16614835  0.14997303     0.10600
C224        C  0.90743430  0.23476206  0.08890318     0.63500
H225        H  0.93195498  0.30761759  0.14035054     0.08000
F226        F  0.94147001  0.33597713  0.31760575    -0.19500
F227        F  0.93754536  0.41559241  0.31312536    -0.15700
F228        F  0.00390351  0.37171169  0.34042065    -0.19200
F229        F  0.99819057  0.35673264  0.09875797    -0.22600
F230        F  0.07072884  0.31913640  0.11742346    -0.24100
F231        F  0.05906385  0.39910753  0.11258054    -0.18100
F232        F  0.88336915  0.19660868  0.10071607    -0.20600
F233        F  0.91990033  0.23121879  0.04454328    -0.21700
F234        F  0.87604023  0.27628728  0.09445801    -0.18900
F235        F  0.10589888  0.19526355  0.20236001    -0.19000
F236        F  0.05755878  0.24139954  0.24846114    -0.22800
F237        F  0.10053559  0.27504825  0.19675114    -0.24400
C238        C  0.98056345  0.75338953  0.17518539    -0.11200
C239        C  0.01655019  0.71537007  0.16701297     0.11300
C240        C  0.05040976  0.71928853  0.13293821    -0.03000
C241        C  0.04900609  0.76282960  0.10999497    -0.05800
C242        C  0.01389847  0.80184325  0.11883103    -0.16600
C243        C  0.97810924  0.79660872  0.15134671     0.02400
C244        C  0.01657187  0.67086636  0.19332390     0.12300
C245        C  0.08722758  0.67725404  0.12029809     0.62900
H246        H  0.07578667  0.76648691  0.08489253     0.12300
C247        C  0.93679992  0.83552846  0.16052965     0.55100
H248        H  0.95430213  0.74878011  0.20064484     0.08100
C249        C  0.03998187  0.66459757  0.23469259    -0.05700
C250        C  0.04113087  0.62009940  0.25610290    -0.06400
C251        C  0.01784650  0.58254226  0.23854675    -0.16000
C252        C  0.99141015  0.59054894  0.19829156    -0.01600
C253        C  0.99200594  0.63450870  0.17623830    -0.09100
C254        C  0.06262234  0.70514702  0.25654792     0.65100
H255        H  0.06032446  0.61451075  0.28694311     0.10600
C256        C  0.96134737  0.55419778  0.17869934     0.63500
H257        H  0.97338829  0.64097838  0.14503115     0.08000
F258        F  0.95374470  0.87403790  0.18127938    -0.19500
F259        F  0.90252267  0.81955028  0.18791411    -0.15700
F260        F  0.91444089  0.85024503  0.12119984    -0.19200
F261        F  0.06401267  0.63971138  0.10518774    -0.22600
F262        F  0.11490177  0.66225620  0.15664455    -0.24100
F263        F  0.11764429  0.68903060  0.08701351    -0.18100
F264        F  0.93156100  0.53904210  0.21091468    -0.20600
F265        F  0.99090620  0.51546670  0.16179826    -0.21700
F266        F  0.93248366  0.57341453  0.14441677    -0.18900
F267        F  0.08395739  0.69141912  0.29661625    -0.19000
F268        F  0.02770533  0.74325482  0.26461115    -0.22800
F269        F  0.09731326  0.72016153  0.22919674    -0.24400
C270        C  0.64765189  0.92894132  0.81399387    -0.11200
C271        C  0.67821123  0.96377222  0.80568388     0.11300
C272        C  0.66650864  0.99812044  0.77199628    -0.03000
C273        C  0.62315176  0.99759728  0.74881317    -0.05800
C274        C  0.59135541  0.96426487  0.75855324    -0.16600
C275        C  0.60387029  0.92885743  0.79125366     0.02400
C276        C  0.72119429  0.96511874  0.83412746     0.12300
C277        C  0.69947456  0.03548178  0.76104809     0.62900
H278        H  0.61301512  0.02423286  0.72364073     0.12300
C279        C  0.57140637  0.89106207  0.80197109     0.55100
H280        H  0.65777324  0.90269695  0.83953071     0.08100
C281        C  0.71834952  0.98919778  0.87540402    -0.05700
C282        C  0.76105799  0.99475008  0.89799450    -0.06400
C283        C  0.80641510  0.97589729  0.88146393    -0.16000
C284        C  0.80854247  0.94759548  0.84190745    -0.01600
C285        C  0.76563571  0.94337788  0.81872715    -0.09100
C286        C  0.67026090  0.00889511  0.89547629     0.65100
H287        H  0.75881843  0.01458113  0.92878555     0.10600
C288        C  0.85515502  0.92150274  0.82384934     0.63500
H289        H  0.76641289  0.92389102  0.78761358     0.08000
F290        F  0.53013634  0.91220001  0.82254876    -0.19500
F291        F  0.59345361  0.85634592  0.83009356    -0.15700
F292        F  0.55934662  0.86860121  0.76338874    -0.19200
F293        F  0.74324796  0.01307596  0.74646746    -0.22600
F294        F  0.70655080  0.06257482  0.79829641    -0.24100
F295        F  0.68065166  0.06631675  0.72808553    -0.18100
F296        F  0.84739263  0.89171802  0.78856955    -0.20600
F297        F  0.87821835  0.89323544  0.85666371    -0.21700
F298        F  0.88446440  0.95420885  0.80897305    -0.18900
F299        F  0.67549945  0.03214238  0.93542038    -0.19000
F300        F  0.64343367  0.97168851  0.90324835    -0.22800
F301        F  0.64542882  0.04117519  0.86684170    -0.24400
C302        C  0.36476735  0.02800558  0.82005761    -0.11200
C303        C  0.32724196  0.00250474  0.80711813     0.11300
C304        C  0.33232089  0.97299528  0.76886214    -0.03000
C305        C  0.37649373  0.96763661  0.74617027    -0.05800
C306        C  0.41504658  0.99142733  0.76019673    -0.16600
C307        C  0.40874067  0.02332643  0.79706095     0.02400
C308        C  0.28312836  0.00666521  0.83469871     0.12300
C309        C  0.29085354  0.94806512  0.75179415     0.62900
H310        H  0.38142876  0.94437990  0.71739109     0.12300
C311        C  0.44756037  0.05317395  0.81178744     0.55100
H312        H  0.35953154  0.05104542  0.84898071     0.08100
C313        C  0.27818682  0.97524320  0.87034912    -0.05700
C314        C  0.23351622  0.97734370  0.89171358    -0.06400
C315        C  0.19453987  0.01146821  0.88029424    -0.16000
C316        C  0.20188282  0.04689197  0.84822578    -0.01600
C317        C  0.24571353  0.04265221  0.82488244    -0.09100
C318        C  0.32020581  0.94024598  0.88616123     0.65100
H319        H  0.22878648  0.95165954  0.91747722     0.10600
C320        C  0.16523081  0.08975137  0.83840929     0.63500
H321        H  0.25102951  0.06750356  0.79847312     0.08000
F322        F  0.48422285  0.02423679  0.83239442    -0.19500
F323        F  0.43004209  0.08874754  0.84149922    -0.15700
F324        F  0.46560092  0.07521496  0.77557013    -0.19200
F325        F  0.25309288  0.98202174  0.74046240    -0.22600
F326        F  0.27562099  0.91855690  0.78403958    -0.24100
F327        F  0.30358477  0.92028467  0.71466045    -0.18100
F328        F  0.18735452  0.12750768  0.82216813    -0.20600
F329        F  0.14076563  0.10602675  0.87642937    -0.21700
F330        F  0.13336057  0.07740594  0.80671321    -0.18900
F331        F  0.30760532  0.91277521  0.92128538    -0.19000
F332        F  0.35680311  0.96541287  0.90019461    -0.22800
F333        F  0.33704314  0.90955455  0.85221523    -0.24400
C334        C  0.75536776  0.00942928  0.18773863    -0.11200
C335        C  0.71773299  0.99049168  0.16616126     0.11300
C336        C  0.72377318  0.97349504  0.12203701    -0.03000
C337        C  0.76854953  0.97459164  0.10137243    -0.05800
C338        C  0.80691184  0.99176957  0.12358757    -0.16600
C339        C  0.80027869  0.01016385  0.16737988     0.02400
C340        C  0.67208574  0.99003029  0.19071931     0.12300
C341        C  0.68298008  0.95485958  0.09688784     0.62900
H342        H  0.77402328  0.96205394  0.06750479     0.12300
C343        C  0.83964933  0.03133395  0.19252515     0.55100
H344        H  0.74927382  0.02312181  0.22116998     0.08100
C345        C  0.66567698  0.95406078  0.22207890    -0.05700
C346        C  0.62169325  0.95641656  0.24470864    -0.06400
C347        C  0.58472474  0.99381922  0.23749725    -0.16000
C348        C  0.59190304  0.03084483  0.20726292    -0.01600
C349        C  0.63573419  0.02808897  0.18421686    -0.09100
C350        C  0.70525772  0.91367162  0.23185286     0.65100
H351        H  0.61571312  0.92883766  0.26830392     0.10600
C352        C  0.55451376  0.07397983  0.20053163     0.63500
H353        H  0.64221523  0.05582208  0.16093734     0.08000
F354        F  0.87500907  0.99523174  0.20450108    -0.19500
F355        F  0.82247465  0.05453947  0.23095779    -0.15700
F356        F  0.85924030  0.06438464  0.16647414    -0.19200
F357        F  0.64559321  0.99119813  0.09195699    -0.22600
F358        F  0.66674302  0.91755626  0.11984489    -0.24100
F359        F  0.69713450  0.93821211  0.05505674    -0.18100
F360        F  0.57212477  0.10898419  0.17527815    -0.20600
F361        F  0.54048752  0.09411892  0.24113974    -0.21700
F362        F  0.51503232  0.06018267  0.17888270    -0.18900
F363        F  0.69110136  0.88211587  0.26293534    -0.19000
F364        F  0.74503973  0.93222981  0.24838473    -0.22800
F365        F  0.71796160  0.88815082  0.19350383    -0.24400
C366        C  0.32100211  0.01618313  0.23994575    -0.11200
C367        C  0.32175368  0.00454734  0.19486057     0.11300
C368        C  0.36588785  0.99537411  0.17216329    -0.03000
C369        C  0.40850499  0.99307241  0.19683898    -0.05800
C370        C  0.40832151  0.00240654  0.24285844    -0.16600
C371        C  0.36354477  0.01675359  0.26437605     0.02400
C372        C  0.27549048  0.00400217  0.17179204     0.12300
C373        C  0.36772335  0.98935421  0.12198874     0.62900
H374        H  0.44243500  0.98379285  0.18000553     0.12300
C375        C  0.35972821  0.03436204  0.31214070     0.55100
H376        H  0.28641121  0.02487373  0.25588217     0.08100
C377        C  0.25355335  0.96148901  0.16750184    -0.05700
C378        C  0.21173210  0.96279651  0.14185898    -0.06400
C379        C  0.19076662  0.00548391  0.12254657    -0.16000
C380        C  0.21082478  0.04853746  0.12932920    -0.01600
C381        C  0.25341307  0.04707474  0.15390210    -0.09100
C382        C  0.27358653  0.91549783  0.19072825     0.65100
H383        H  0.19484806  0.93054942  0.13678827     0.10600
C384        C  0.18773562  0.09522976  0.10962024     0.63500
H385        H  0.27037428  0.07930505  0.15870974     0.08000
F386        F  0.37043337  0.99634703  0.34080909    -0.19500
F387        F  0.31395769  0.05580780  0.32221441    -0.15700
F388        F  0.39078143  0.06825879  0.31911583    -0.19200
F389        F  0.34489443  0.03015241  0.10219433    -0.22600
F390        F  0.34507811  0.95058680  0.10915256    -0.24100
F391        F  0.41437657  0.98220807  0.10629233    -0.18100
F392        F  0.21310682  0.13306143  0.11981812    -0.20600
F393        F  0.14165280  0.10581277  0.12603829    -0.21700
F394        F  0.18583327  0.09095461  0.06395783    -0.18900
F395        F  0.24628331  0.87863927  0.18234807    -0.19000
F396        F  0.27389278  0.92323213  0.23602665    -0.22800
F397        F  0.31988200  0.90079917  0.17670059    -0.24400
loop_ 
_geom_bond_atom_site_label_1 
_geom_bond_atom_site_label_2 
_geom_bond_distance 
_geom_bond_site_symmetry_2 
_ccdc_geom_bond_type 
C1           N19   1.348       .  A
C1           C38   1.454   1_545  S
C1          C379   1.464       .  S
N2           N19   1.324   1_565  A
N2           N24   1.318       .  A
N2          Co39   2.079       .  S
C3           N28   1.339   1_655  A
C3           C41   1.465   1_655  S
C3           H48   1.081       .  S
H4           C45   1.077       .  S
C5           N29   1.339       .  A
C5            C9   1.465       .  S
C5           H34   1.075       .  S
Co6          N24   2.070   1_556  S
Co6          N14   2.086       .  S
Co6          N46   2.087   1_556  S
Co6          N22   2.072       .  S
Co6         Cl50   2.442   1_455  S
N7           C45   1.341       .  A
N7           N14   1.319   1_545  A
N7           Co8   2.088   1_455  S
Co8          N11   2.092       .  S
Co8          N28   2.083   1_645  S
Co8          N15   2.086   1_545  S
Co8         Cl50   2.460   1_545  S
C9           N47   1.355       .  A
C9          C155   1.494       .  S
N10          N17   1.319       .  A
N10          N40   1.325       .  A
N10         Co43   2.089       .  S
N11          N29   1.318       .  A
N11          N47   1.327       .  A
N12          C41   1.347       .  A
N12          N22   1.322       .  A
H13          C38   1.082       .  S
N14          N35   1.322       .  A
N15          N33   1.318   1_565  A
N15          N20   1.324       .  A
C16          N20   1.351       .  A
C16          C44   1.470   1_565  S
C16         C283   1.499       .  S
N17          C32   1.337   1_655  A
N17         Co39   2.077   1_645  S
C18          N46   1.340       .  A
C18          C21   1.466       .  S
C18          H52   1.080       .  S
C21          N42   1.351   1_455  A
C21         C242   1.492       .  S
N22          N28   1.318       .  A
N23          C49   1.339       .  A
N23          N25   1.319   1_565  A
N23         Co39   2.076   1_655  S
N24          C38   1.337       .  A
N25          N53   1.324       .  A
N25         Co43   2.085       .  S
H26          C49   1.080       .  S
H27          C44   1.080       .  S
N29         Co43   2.085   1_556  S
N30          N42   1.324   1_455  A
N30          N46   1.318       .  A
N30         Co39   2.084       .  S
C31          N35   1.352   1_545  A
C31          C45   1.470       .  S
C31         C315   1.494       .  S
C32          C51   1.462   1_455  S
C32          H36   1.081       .  S
N33          C44   1.340       .  A
N33         Co43   2.089   1_556  S
C37          N53   1.350   1_565  A
C37          C49   1.459       .  S
C37         C338   1.476       .  S
Co39        Cl50   2.452   1_454  S
N40          C51   1.352       .  A
C41         C178   1.484       .  S
Co43        Cl50   2.443   1_544  S
C51         C219   1.489       .  S
C54          N55   1.359       .  A
C54          N59   1.363       .  A
C54         C251   1.498       .  S
N55          C56   1.359       .  A
C56          N57   1.355       .  A
C56         C210   1.492       .  S
N57          C58   1.357       .  A
C58          N59   1.360       .  A
C58         C123   1.483       .  S
C60          N61   1.354       .  A
C60          N65   1.353       .  A
C60         C187   1.468       .  S
N61          C62   1.357       .  A
C62          N63   1.365       .  A
C62         C146   1.490       .  S
N63          C64   1.364       .  A
C64          N65   1.356       .  A
C64         C114   1.485       .  S
C66          N67   1.357       .  A
C66          N71   1.360       .  A
C66         C370   1.495   1_565  S
N67          C68   1.357       .  A
C68          N69   1.357       .  A
C68          C91   1.481       .  S
N69          C70   1.360       .  A
C70          N71   1.357       .  A
C70         C347   1.479       .  S
C72          N73   1.357       .  A
C72          N77   1.362       .  A
C72         C306   1.485       .  S
N73          C74   1.355       .  A
C74          N75   1.358       .  A
C74         C274   1.480       .  S
N75          C76   1.359       .  A
C76          N77   1.362       .  A
C76          C82   1.487       .  S
C78          H88   1.083       .  S
C78          C79   1.400   1_545  A
C78          C83   1.407       .  A
C79          C84   1.488       .  S
C79          C80   1.416       .  A
C80          C81   1.411       .  A
C80          C85   1.519       .  S
C81          H86   1.083       .  S
C81          C82   1.406       .  A
C82          C83   1.421   1_565  A
C83          C87   1.519       .  S
C84          C89   1.416   1_565  A
C84          C93   1.404       .  A
C85         F101   1.382       .  S
C85         F102   1.382       .  S
C85         F103   1.384       .  S
C87          F98   1.385       .  S
C87          F99   1.381       .  S
C87         F100   1.384       .  S
C89          C90   1.405       .  A
C89          C94   1.520       .  S
C90          H95   1.082       .  S
C90          C91   1.403   1_545  A
C91          C92   1.418       .  A
C92          C93   1.411       .  A
C92          C96   1.518       .  S
C93          H97   1.083       .  S
C94         F107   1.385       .  S
C94         F108   1.382       .  S
C94         F109   1.382       .  S
C96         F104   1.382       .  S
C96         F105   1.383       .  S
C96         F106   1.385       .  S
C110        H120   1.083   1_455  S
C110        C111   1.399       .  A
C110        C115   1.406   1_455  A
C111        C116   1.485       .  S
C111        C112   1.415       .  A
C112        C113   1.410       .  A
C112        C117   1.518       .  S
C113        H118   1.083       .  S
C113        C114   1.405       .  A
C114        C115   1.423   1_455  A
C115        C119   1.520       .  S
C116        C121   1.416   1_455  A
C116        C125   1.403       .  A
C117        F133   1.383       .  S
C117        F134   1.382       .  S
C117        F135   1.384       .  S
C119        F130   1.385       .  S
C119        F131   1.382       .  S
C119        F132   1.383       .  S
C121        C122   1.405       .  A
C121        C126   1.520       .  S
C122        H127   1.082       .  S
C122        C123   1.404   1_655  A
C123        C124   1.418       .  A
C124        C125   1.410       .  A
C124        C128   1.517       .  S
C125        H129   1.083       .  S
C126        F139   1.385       .  S
C126        F140   1.382       .  S
C126        F141   1.382       .  S
C128        F136   1.380       .  S
C128        F137   1.384       .  S
C128        F138   1.385       .  S
C142        H152   1.083       .  S
C142        C143   1.401   1_455  A
C142        C147   1.408       .  A
C143        C148   1.491       .  S
C143        C144   1.417       .  A
C144        C145   1.410       .  A
C144        C149   1.520       .  S
C145        H150   1.083       .  S
C145        C146   1.406   1_655  A
C146        C147   1.423       .  A
C147        C151   1.521       .  S
C148        C153   1.415   1_655  A
C148        C157   1.400       .  A
C149        F165   1.382       .  S
C149        F166   1.382       .  S
C149        F167   1.385       .  S
C151        F162   1.385       .  S
C151        F163   1.383       .  S
C151        F164   1.384       .  S
C153        C154   1.410       .  A
C153        C158   1.519       .  S
C154        H159   1.083       .  S
C154        C155   1.407   1_455  A
C155        C156   1.426       .  A
C156        C157   1.409       .  A
C156        C160   1.519       .  S
C157        H161   1.083       .  S
C158        F171   1.384       .  S
C158        F172   1.382       .  S
C158        F173   1.383       .  S
C160        F168   1.385       .  S
C160        F169   1.381       .  S
C160        F170   1.383       .  S
C174        H184   1.083       .  S
C174        C175   1.398       .  A
C174        C179   1.405       .  A
C175        C180   1.477       .  S
C175        C176   1.413       .  A
C176        C177   1.404       .  A
C176        C181   1.521       .  S
C177        H182   1.081       .  S
C177        C178   1.406       .  A
C178        C179   1.424       .  A
C179        C183   1.520       .  S
C180        C185   1.416       .  A
C180        C189   1.400   1_455  A
C181        F197   1.382   1_455  S
C181        F198   1.382       .  S
C181        F199   1.385   1_455  S
C183        F194   1.385       .  S
C183        F195   1.383   1_455  S
C183        F196   1.382       .  S
C185        C186   1.407       .  A
C185        C190   1.520       .  S
C186        H191   1.083       .  S
C186        C187   1.402       .  A
C187        C188   1.413   1_455  A
C188        C189   1.403       .  A
C188        C192   1.517       .  S
C189        H193   1.083       .  S
C190        F203   1.384       .  S
C190        F204   1.382       .  S
C190        F205   1.382       .  S
C192        F200   1.382       .  S
C192        F201   1.381       .  S
C192        F202   1.384       .  S
C206        H216   1.083       .  S
C206        C207   1.399   1_655  A
C206        C211   1.408       .  A
C207        C212   1.483   1_455  S
C207        C208   1.412       .  A
C208        C209   1.406       .  A
C208        C213   1.520       .  S
C209        H214   1.082       .  S
C209        C210   1.408       .  A
C210        C211   1.426   1_455  A
C211        C215   1.521       .  S
C212        C217   1.412   1_655  A
C212        C221   1.400       .  A
C213        F229   1.383   1_455  S
C213        F230   1.382       .  S
C213        F231   1.384       .  S
C215        F226   1.385       .  S
C215        F227   1.384       .  S
C215        F228   1.382   1_655  S
C217        C218   1.404       .  A
C217        C222   1.520       .  S
C218        H223   1.081       .  S
C218        C219   1.407   1_455  A
C219        C220   1.424       .  A
C220        C221   1.409       .  A
C220        C224   1.519       .  S
C221        H225   1.083       .  S
C222        F235   1.385       .  S
C222        F236   1.383       .  S
C222        F237   1.382       .  S
C224        F232   1.384       .  S
C224        F233   1.383       .  S
C224        F234   1.385       .  S
C238        H248   1.083       .  S
C238        C239   1.400   1_655  A
C238        C243   1.409       .  A
C239        C244   1.485       .  S
C239        C240   1.413       .  A
C240        C241   1.406       .  A
C240        C245   1.520       .  S
C241        H246   1.081       .  S
C241        C242   1.408       .  A
C242        C243   1.424   1_455  A
C243        C247   1.520       .  S
C244        C249   1.412       .  A
C244        C253   1.398   1_455  A
C245        F261   1.382       .  S
C245        F262   1.382       .  S
C245        F263   1.385       .  S
C247        F258   1.382       .  S
C247        F259   1.385       .  S
C247        F260   1.384       .  S
C249        C250   1.408       .  A
C249        C254   1.520       .  S
C250        H255   1.078       .  S
C250        C251   1.410       .  A
C251        C252   1.428   1_455  A
C252        C253   1.408       .  A
C252        C256   1.521       .  S
C253        H257   1.082       .  S
C254        F267   1.385       .  S
C254        F268   1.383       .  S
C254        F269   1.382       .  S
C256        F264   1.384       .  S
C256        F265   1.382       .  S
C256        F266   1.385       .  S
C270        H280   1.083       .  S
C270        C271   1.402       .  A
C270        C275   1.409       .  A
C271        C276   1.486       .  S
C271        C272   1.416       .  A
C272        C273   1.406       .  A
C272        C277   1.520   1_565  S
C273        H278   1.083   1_565  S
C273        C274   1.403       .  A
C274        C275   1.418       .  A
C275        C279   1.518       .  S
C276        C281   1.412       .  A
C276        C285   1.400       .  A
C277        F293   1.382       .  S
C277        F294   1.383       .  S
C277        F295   1.385       .  S
C279        F290   1.382       .  S
C279        F291   1.385       .  S
C279        F292   1.383       .  S
C281        C282   1.405       .  A
C281        C286   1.520   1_565  S
C282        H287   1.079   1_565  S
C282        C283   1.409       .  A
C283        C284   1.428       .  A
C284        C285   1.411       .  A
C284        C288   1.520       .  S
C285        H289   1.083       .  S
C286        F299   1.384       .  S
C286        F300   1.382   1_545  S
C286        F301   1.382       .  S
C288        F296   1.385       .  S
C288        F297   1.383       .  S
C288        F298   1.383       .  S
C302        H312   1.083       .  S
C302        C303   1.400       .  A
C302        C307   1.408       .  A
C303        C308   1.484       .  S
C303        C304   1.415   1_545  A
C304        C305   1.408       .  A
C304        C309   1.520       .  S
C305        H310   1.083       .  S
C305        C306   1.405       .  A
C306        C307   1.423   1_565  A
C307        C311   1.520       .  S
C308        C313   1.412   1_545  A
C308        C317   1.400       .  A
C309        F325   1.383       .  S
C309        F326   1.382       .  S
C309        F327   1.384       .  S
C311        F322   1.382       .  S
C311        F323   1.385       .  S
C311        F324   1.384       .  S
C313        C314   1.405       .  A
C313        C318   1.521       .  S
C314        H319   1.082       .  S
C314        C315   1.409   1_565  A
C315        C316   1.424       .  A
C316        C317   1.410       .  A
C316        C320   1.517       .  S
C317        H321   1.084       .  S
C318        F331   1.385       .  S
C318        F332   1.383       .  S
C318        F333   1.382       .  S
C320        F328   1.385       .  S
C320        F329   1.383       .  S
C320        F330   1.382       .  S
C334        H344   1.084       .  S
C334        C335   1.400   1_545  A
C334        C339   1.405       .  A
C335        C340   1.482       .  S
C335        C336   1.415       .  A
C336        C337   1.407       .  A
C336        C341   1.519       .  S
C337        H342   1.084       .  S
C337        C338   1.403       .  A
C338        C339   1.420   1_565  A
C339        C343   1.520       .  S
C340        C345   1.415       .  A
C340        C349   1.401   1_565  A
C341        F357   1.382       .  S
C341        F358   1.382       .  S
C341        F359   1.385       .  S
C343        F354   1.381   1_545  S
C343        F355   1.385       .  S
C343        F356   1.383       .  S
C345        C346   1.405       .  A
C345        C350   1.520       .  S
C346        H351   1.083       .  S
C346        C347   1.403       .  A
C347        C348   1.420   1_565  A
C348        C349   1.407       .  A
C348        C352   1.520       .  S
C349        H353   1.083       .  S
C350        F363   1.384       .  S
C350        F364   1.382       .  S
C350        F365   1.382       .  S
C352        F360   1.385       .  S
C352        F361   1.384       .  S
C352        F362   1.382       .  S
C366        H376   1.084       .  S
C366        C367   1.397       .  A
C366        C371   1.406       .  A
C367        C372   1.476       .  S
C367        C368   1.411   1_545  A
C368        C369   1.405       .  A
C368        C373   1.522       .  S
C369        H374   1.082       .  S
C369        C370   1.411   1_565  A
C370        C371   1.428       .  A
C371        C375   1.520       .  S
C372        C377   1.415   1_545  A
C372        C381   1.402       .  A
C373        F389   1.383   1_565  S
C373        F390   1.381       .  S
C373        F391   1.384       .  S
C375        F386   1.383   1_545  S
C375        F387   1.385       .  S
C375        F388   1.384       .  S
C377        C378   1.404       .  A
C377        C382   1.521       .  S
C378        H383   1.084       .  S
C378        C379   1.401   1_565  A
C379        C380   1.410       .  A
C380        C381   1.404       .  A
C380        C384   1.516       .  S
C381        H385   1.083       .  S
C382        F395   1.385       .  S
C382        F396   1.382       .  S
C382        F397   1.381       .  S
C384        F392   1.384       .  S
C384        F393   1.383       .  S
C384        F394   1.383       .  S
