geometry optimzed in LAMMPS
_audit_creation_date              2020-11-30 
_audit_creation_method            'lammps2cif' 
_symmetry_space_group_name_H-M    'P1' 
_symmetry_Int_Tables_number       1 
_symmetry_cell_setting            triclinic 
loop_ 
_symmetry_equiv_pos_as_xyz 
  x,y,z 
_cell_length_a                    43.452544683002515 
_cell_length_b                    43.359686257242785 
_cell_length_c                    26.150060855624666 
_cell_angle_alpha                 89.8757513233086 
_cell_angle_beta                  89.13819715813305 
_cell_angle_gamma                 120.91065187685734 
loop_ 
_atom_site_label 
_atom_site_type_symbol 
_atom_site_fract_x 
_atom_site_fract_y 
_atom_site_fract_z 
_atom_site_charge 
C1          C  0.47964379  0.01707151  0.33046819     0.02990
C2          C  0.46318682  0.47969449  0.32476430    -0.13160
C3          C  0.48290565  0.46246736  0.99661530     0.00490
C4          C  0.02026988  0.48360079  0.00208921    -0.11680
C5          C  0.03737429  0.02106254  0.00711013     0.02980
C6          C  0.01656652  0.03734313  0.33983399    -0.11100
H7          H  0.43483008  0.46393238  0.31669339     0.08580
H8          H  0.03610335  0.47084185  0.00245579     0.06110
H9          H  0.02928027  0.06596161  0.34631777     0.05960
C10         C  0.41640918  0.30724619  0.33068583     0.02990
C11         C  0.40695889  0.28817623  0.28447654    -0.13160
C12         C  0.38934108  0.25060252  0.28504437     0.00490
C13         C  0.38148111  0.23203352  0.33167810    -0.11680
C14         C  0.38996138  0.25053083  0.04463012     0.02980
C15         C  0.40709196  0.28812373  0.04416794    -0.11100
H16         H  0.41198630  0.30243616  0.24835858     0.08580
H17         H  0.36719638  0.20287948  0.33198027     0.06110
H18         H  0.41350193  0.30244791  0.08001985     0.05960
C19         C  0.39331712  0.08375877  0.33144706     0.02990
C20         C  0.38455416  0.09397284  0.04469107    -0.13160
C21         C  0.36440266  0.11088347  0.04489030     0.00490
C22         C  0.35423825  0.11880183  0.33180640    -0.11680
C23         C  0.36420631  0.11031266  0.28528630     0.02980
C24         C  0.38326687  0.09232425  0.28502534    -0.11100
H25         H  0.39324315  0.08864878  0.08055214     0.08580
H26         H  0.33982107  0.13311057  0.33179489     0.06110
H27         H  0.39123406  0.08604853  0.24888975     0.05960
O28         O  0.36044313  0.23426148  0.12600252    -0.85490
O29         O  0.29533578  0.17705254  0.10036228    -0.82530
C30         C  0.27100850  0.14485547  0.09427822     0.97980
O31         O  0.26575677  0.12096804  0.12706055    -0.82570
O32         O  0.32248982  0.11356594  0.09958615    -0.85210
C33         C  0.35454895  0.12183561  0.09253416     1.02500
O34         O  0.37815254  0.14058034  0.12501303    -0.77970
O35         O  0.38677486  0.20559554  0.09871732    -0.78160
C36         C  0.37898699  0.22955182  0.09252245     1.02450
O37         O  0.34098643  0.21458991  0.23253482    -0.85480
O38         O  0.27329960  0.16236451  0.20760336    -0.82550
C39         C  0.26934545  0.13880168  0.24011752     0.98000
O40         O  0.28399632  0.12055816  0.23307978    -0.82570
O41         O  0.33559841  0.10548351  0.20625537    -0.85180
C42         C  0.35903868  0.12534820  0.23828152     1.02470
O43         O  0.37770103  0.15879172  0.23136625    -0.78000
O44         O  0.39412973  0.22649670  0.20564150    -0.78150
C45         C  0.37429950  0.22987592  0.23845770     1.02430
Cr46       Cr  0.31852667  0.19507763  0.16656483     1.93740
Cr47       Cr  0.30396999  0.11818028  0.16642276     1.93210
Cr48       Cr  0.38116913  0.18181018  0.16520263     1.39100
O49         O  0.33455325  0.16501430  0.16621004    -1.23230
C50         C  0.19288100  0.10645190  0.33672521     0.02990
C51         C  0.21237137  0.11623845  0.04907618    -0.13160
C52         C  0.24994149  0.13507438  0.04745392     0.00490
C53         C  0.26811540  0.14395046  0.33354109    -0.11680
C54         C  0.24916919  0.13341920  0.28795451     0.02980
C55         C  0.21161401  0.11459864  0.28946126    -0.11100
H56         H  0.19839919  0.10962105  0.08577690     0.08580
H57         H  0.29719559  0.15796147  0.33226032     0.06110
H58         H  0.19706304  0.10524119  0.25411781     0.05960
C59         C  0.13520616  0.05581943  0.03848762    -0.09290
C60         C  0.15303438  0.08574232  0.33871854     0.06900
C61         C  0.13243000  0.09533757  0.30872392    -0.03060
C62         C  0.09501441  0.07401072  0.31019157    -0.07510
C63         C  0.07715115  0.04359433  0.34243697     0.06020
C64         C  0.09773456  0.03519723  0.04127389    -0.02540
Br65       Br  0.07665237  0.49777128  0.09244837    -0.02230
H66         H  0.15053554  0.04842581  0.06255588     0.09930
H67         H  0.07976761  0.08126768  0.28572473     0.07950
Br68       Br  0.15342050  0.13847663  0.26769870    -0.02660
C69         C  0.48038296  0.40636424  0.30083966    -0.09290
C70         C  0.46485247  0.42252869  0.32944733     0.06900
C71         C  0.43361541  0.40023541  0.02604607    -0.03060
C72         C  0.41822657  0.36290837  0.02546755    -0.07510
C73         C  0.43379174  0.34693503  0.33012952     0.06020
C74         C  0.46558962  0.36910770  0.30172449    -0.02540
Br75       Br  0.99165859  0.35034469  0.26702986    -0.02230
H76         H  0.00455481  0.42282948  0.27818696     0.09930
H77         H  0.39408506  0.34620944  0.04809627     0.07950
Br78       Br  0.41209148  0.41861525  0.07208317    -0.02660
C79         C  0.42543786  0.01879792  0.02469435    -0.09290
C80         C  0.45771179  0.03439970  0.32936385     0.06900
C81         C  0.46798594  0.06584913  0.30024032    -0.03060
C82         C  0.44677240  0.08152872  0.30174634    -0.07510
C83         C  0.41483022  0.06612755  0.33096239     0.06020
C84         C  0.40386230  0.03404972  0.02518788    -0.02540
Br85       Br  0.35858698  0.50853235  0.06122258    -0.02230
H86         H  0.41683881  0.49447676  0.04683047     0.09930
H87         H  0.45518640  0.10585601  0.27968125     0.07950
Br88       Br  0.00905501  0.08736281  0.25476197    -0.02660
C89         C  0.47964447  0.01707204  0.66380465     0.02990
C90         C  0.46318657  0.47969461  0.65809956    -0.13160
C91         C  0.48290924  0.46246706  0.32993493     0.00490
C92         C  0.02027333  0.48360153  0.33540923    -0.11680
C93         C  0.03737634  0.02106303  0.34043035     0.02980
C94         C  0.01656756  0.03734307  0.67316820    -0.11100
H95         H  0.43482957  0.46393285  0.65003015     0.08580
H96         H  0.03610753  0.47084338  0.33577719     0.06110
H97         H  0.02928209  0.06596157  0.67965233     0.05960
C98         C  0.41640920  0.30724581  0.66401869     0.02990
C99         C  0.40696069  0.28817568  0.61780950    -0.13160
C100        C  0.38934331  0.25060199  0.61837767     0.00490
C101        C  0.38148161  0.23203317  0.66501177    -0.11680
C102        C  0.38996555  0.25053075  0.37796314     0.02980
C103        C  0.40709818  0.28812389  0.37750060    -0.11100
H104        H  0.41198893  0.30243541  0.58169121     0.08580
H105        H  0.36719699  0.20287913  0.66531419     0.06110
H106        H  0.41350960  0.30244837  0.41335232     0.05960
C107        C  0.39331751  0.08375909  0.66478600     0.02990
C108        C  0.38455695  0.09397169  0.37802023    -0.13160
C109        C  0.36440621  0.11088330  0.37822184     0.00490
C110        C  0.35423787  0.11880138  0.66514073    -0.11680
C111        C  0.36420738  0.11031223  0.61862172     0.02980
C112        C  0.38326816  0.09232412  0.61836314    -0.11100
H113        H  0.39324614  0.08864664  0.41388037     0.08580
H114        H  0.33982057  0.13310997  0.66512742     0.06110
H115        H  0.39123641  0.08604843  0.58222840     0.05960
O116        O  0.36044690  0.23426105  0.45933529    -0.85490
O117        O  0.29533925  0.17705192  0.43369495    -0.82530
C118        C  0.27101140  0.14485498  0.42761145     0.97980
O119        O  0.26576016  0.12096730  0.46039304    -0.82570
O120        O  0.32249349  0.11356497  0.43291928    -0.85210
C121        C  0.35455269  0.12183484  0.42586682     1.02500
O122        O  0.37815641  0.14057978  0.45834555    -0.77970
O123        O  0.38677908  0.20559542  0.43205054    -0.78160
C124        C  0.37899118  0.22955171  0.42585557     1.02450
O125        O  0.34098955  0.21458912  0.56586732    -0.85480
O126        O  0.27330294  0.16236405  0.54093532    -0.82550
C127        C  0.26934827  0.13880106  0.57344949     0.98000
O128        O  0.28399937  0.12055766  0.56641246    -0.82570
O129        O  0.33560145  0.10548284  0.53958887    -0.85180
C130        C  0.35904117  0.12534757  0.57161557     1.02470
O131        O  0.37770421  0.15879096  0.56469955    -0.78000
O132        O  0.39413311  0.22649594  0.53897527    -0.78150
C133        C  0.37430252  0.22987517  0.57179087     1.02430
Cr134      Cr  0.31853022  0.19507703  0.49989726     1.93740
Cr135      Cr  0.30397337  0.11817963  0.49975564     1.93210
Cr136      Cr  0.38117275  0.18180956  0.49853577     1.39100
O137        O  0.33455678  0.16501367  0.49954265    -1.23230
C138        C  0.19288136  0.10645036  0.67005314     0.02990
C139        C  0.21237333  0.11623965  0.38241088    -0.13160
C140        C  0.24994355  0.13507438  0.38078806     0.00490
C141        C  0.26811578  0.14394979  0.66687302    -0.11680
C142        C  0.24917077  0.13341808  0.62128542     0.02980
C143        C  0.21161553  0.11459710  0.62279018    -0.11100
H144        H  0.19840134  0.10962220  0.41911173     0.08580
H145        H  0.29719599  0.15796117  0.66559386     0.06110
H146        H  0.19706546  0.10523939  0.58744606     0.05960
C147        C  0.13520686  0.05582207  0.37181972    -0.09290
C148        C  0.15303478  0.08574009  0.67204504     0.06900
C149        C  0.13243028  0.09533493  0.64204996    -0.03060
C150        C  0.09501464  0.07400852  0.64351902    -0.07510
C151        C  0.07715164  0.04359288  0.67576583     0.06020
C152        C  0.09773520  0.03519889  0.37460163    -0.02540
Br153      Br  0.07665132  0.49777142  0.42577370    -0.02230
H154        H  0.15053539  0.04842822  0.39588942     0.09930
H155        H  0.07976754  0.08126528  0.61905245     0.07950
Br156      Br  0.15342065  0.13847292  0.60102241    -0.02660
C157        C  0.48038206  0.40636393  0.63417134    -0.09290
C158        C  0.46485175  0.42252834  0.66277957     0.06900
C159        C  0.43362155  0.40023604  0.35937250    -0.03060
C160        C  0.41823368  0.36290909  0.35879799    -0.07510
C161        C  0.43379145  0.34693467  0.66346194     0.06020
C162        C  0.46558914  0.36910748  0.63505655    -0.02540
Br163      Br  0.99165877  0.35034506  0.60036237    -0.02230
H164        H  0.00455359  0.42282919  0.61151807     0.09930
H165        H  0.39409299  0.34621080  0.38142864     0.07950
Br166      Br  0.41209830  0.41861734  0.40540815    -0.02660
C167        C  0.42543835  0.01879474  0.35801278    -0.09290
C168        C  0.45771306  0.03440093  0.66270284     0.06900
C169        C  0.46798709  0.06585057  0.63357995    -0.03060
C170        C  0.44677362  0.08153018  0.63508696    -0.07510
C171        C  0.41483151  0.06612882  0.66430319     0.06020
C172        C  0.40386328  0.03404715  0.35850961    -0.02540
Br173      Br  0.35858861  0.50852975  0.39454544    -0.02230
H174        H  0.41683960  0.49447336  0.38014784     0.09930
H175        H  0.45518738  0.10585742  0.61302186     0.07950
Br176      Br  0.00905552  0.08736431  0.58810048    -0.02660
C177        C  0.47964261  0.01707327  0.99715111     0.02990
C178        C  0.46318431  0.47969596  0.99144616    -0.13160
C179        C  0.48290878  0.46246675  0.66326764     0.00490
C180        C  0.02027308  0.48360091  0.66873970    -0.11680
C181        C  0.03737679  0.02106233  0.67376159     0.02980
C182        C  0.01656552  0.03734381  0.00651598    -0.11100
H183        H  0.43482759  0.46393484  0.98337478     0.08580
H184        H  0.03610709  0.47084253  0.66910618     0.06110
H185        H  0.02928035  0.06596239  0.01299957     0.05960
C186        C  0.41640315  0.30724626  0.99735348     0.02990
C187        C  0.40695491  0.28817661  0.95114382    -0.13160
C188        C  0.38933938  0.25060295  0.95171122     0.00490
C189        C  0.38147931  0.23203389  0.99834491    -0.11680
C190        C  0.38996402  0.25053051  0.71129668     0.02980
C191        C  0.40709658  0.28812362  0.71083369    -0.11100
H192        H  0.41198238  0.30243663  0.91502594     0.08580
H193        H  0.36719608  0.20287988  0.99864685     0.06110
H194        H  0.41350673  0.30244815  0.74668531     0.05960
C195        C  0.39331545  0.08375964  0.99811931     0.02990
C196        C  0.38455593  0.09397195  0.71135806    -0.13160
C197        C  0.36440477  0.11088316  0.71155740     0.00490
C198        C  0.35423504  0.11880103  0.99847390    -0.11680
C199        C  0.36420457  0.11031198  0.95195492     0.02980
C200        C  0.38326593  0.09232434  0.95169627    -0.11100
H201        H  0.39324454  0.08864740  0.74721908     0.08580
H202        H  0.33981739  0.13310929  0.99846074     0.06110
H203        H  0.39123430  0.08604869  0.91556163     0.05960
O204        O  0.36044354  0.23426090  0.79266793    -0.85490
O205        O  0.29533632  0.17705172  0.76702796    -0.82530
C206        C  0.27100906  0.14485468  0.76094380     0.97980
O207        O  0.26575730  0.12096717  0.79372593    -0.82570
O208        O  0.32249119  0.11356544  0.76625271    -0.85210
C209        C  0.35455045  0.12183514  0.75920138     1.02500
O210        O  0.37815366  0.14058002  0.79168073    -0.77970
O211        O  0.38677641  0.20559543  0.76538528    -0.78160
C212        C  0.37898849  0.22955157  0.75918925     1.02450
O213        O  0.34098594  0.21458988  0.89920039    -0.85480
O214        O  0.27329953  0.16236401  0.87426916    -0.82550
C215        C  0.26934478  0.13880082  0.90678323     0.98000
O216        O  0.28399563  0.12055721  0.89974565    -0.82570
O217        O  0.33559834  0.10548285  0.87292252    -0.85180
C218        C  0.35903805  0.12534748  0.90494929     1.02470
O219        O  0.37770049  0.15879100  0.89803422    -0.78000
O220        O  0.39412961  0.22649621  0.87230970    -0.78150
C221        C  0.37429887  0.22987599  0.90512440     1.02430
Cr222      Cr  0.31852682  0.19507706  0.83323047     1.93740
Cr223      Cr  0.30397034  0.11817965  0.83308898     1.93210
Cr224      Cr  0.38116952  0.18180972  0.83187054     1.39100
O225        O  0.33455355  0.16501378  0.83287662    -1.23230
C226        C  0.19287924  0.10644934  0.00339049     0.02990
C227        C  0.21237250  0.11623871  0.71573980    -0.13160
C228        C  0.24994265  0.13507380  0.71411904     0.00490
C229        C  0.26811372  0.14395053  0.00020708    -0.11680
C230        C  0.24916785  0.13341807  0.95462009     0.02980
C231        C  0.21161249  0.11459619  0.95612659    -0.11100
H232        H  0.19839957  0.10962134  0.75243994     0.08580
H233        H  0.29719395  0.15796246  0.99892683     0.06110
H234        H  0.19706165  0.10523800  0.92078315     0.05960
C235        C  0.13520747  0.05582018  0.70514682    -0.09290
C236        C  0.15303261  0.08573889  0.00538476     0.06900
C237        C  0.13242723  0.09533388  0.97539209    -0.03060
C238        C  0.09501158  0.07400798  0.97686418    -0.07510
C239        C  0.07714935  0.04359279  0.00911201     0.06020
C240        C  0.09773589  0.03519736  0.70792982    -0.02540
Br241      Br  0.07665210  0.49777099  0.75910267    -0.02230
H242        H  0.15053615  0.04842652  0.72921655     0.09930
H243        H  0.07976389  0.08126483  0.95239907     0.07950
Br244      Br  0.15341655  0.13847164  0.93436423    -0.02660
C245        C  0.48037828  0.40636511  0.96751494    -0.09290
C246        C  0.46484776  0.42252894  0.99612399     0.06900
C247        C  0.43362115  0.40023560  0.69270529    -0.03060
C248        C  0.41823338  0.36290867  0.69213060    -0.07510
C249        C  0.43378509  0.34693504  0.99679837     0.06020
C250        C  0.46558410  0.36910848  0.96839617    -0.02540
Br251      Br  0.99165381  0.35034639  0.93370161    -0.02230
H252        H  0.00455091  0.42283088  0.94486426     0.09930
H253        H  0.39409285  0.34621036  0.71476155     0.07950
Br254      Br  0.41209841  0.41861664  0.73874234    -0.02660
C255        C  0.42544012  0.01879619  0.69135297    -0.09290
C256        C  0.45771163  0.03440249  0.99604629     0.06900
C257        C  0.46798613  0.06585140  0.96692128    -0.03060
C258        C  0.44677200  0.08153036  0.96842386    -0.07510
C259        C  0.41482907  0.06612911  0.99763805     0.06020
C260        C  0.40386504  0.03404862  0.69185072    -0.02540
Br261      Br  0.35859049  0.50853072  0.72788752    -0.02230
H262        H  0.41684133  0.49447436  0.71348733     0.09930
H263        H  0.45518609  0.10585715  0.94635746     0.07950
Br264      Br  0.00905633  0.08736510  0.92144507    -0.02660
C265        C  0.47964400  0.51707176  0.33046845     0.02990
C266        C  0.46318669  0.97969423  0.32476425    -0.13160
C267        C  0.48290566  0.96246739  0.99661541     0.00490
C268        C  0.02026992  0.98360086  0.00208909    -0.11680
C269        C  0.03737425  0.52106246  0.00711030     0.02980
C270        C  0.01656669  0.53734325  0.33983447    -0.11100
H271        H  0.43482994  0.96393204  0.31669343     0.08580
H272        H  0.03610340  0.97084192  0.00245565     0.06110
H273        H  0.02928048  0.56596170  0.34631845     0.05960
C274        C  0.41640903  0.80724604  0.33068593     0.02990
C275        C  0.40695871  0.78817611  0.28447663    -0.13160
C276        C  0.38934080  0.75060238  0.28504443     0.00490
C277        C  0.38148077  0.73203336  0.33167814    -0.11680
C278        C  0.38996109  0.75053081  0.04463013     0.02980
C279        C  0.40709170  0.78812371  0.04416798    -0.11100
H280        H  0.41198619  0.80243606  0.24835868     0.08580
H281        H  0.36719599  0.70287932  0.33198031     0.06110
H282        H  0.41350170  0.80244788  0.08001990     0.05960
C283        C  0.39331757  0.58375922  0.33144720     0.02990
C284        C  0.38455443  0.59397303  0.04469099    -0.13160
C285        C  0.36440294  0.61088367  0.04489026     0.00490
C286        C  0.35423843  0.61880199  0.33180641    -0.11680
C287        C  0.36420662  0.61031291  0.28528634     0.02980
C288        C  0.38326732  0.59232465  0.28502544    -0.11100
H289        H  0.39324342  0.58864896  0.08055205     0.08580
H290        H  0.33982113  0.63311059  0.33179486     0.06110
H291        H  0.39123459  0.58604898  0.24888988     0.05960
O292        O  0.36044286  0.73426135  0.12600255    -0.85490
O293        O  0.29533564  0.67705225  0.10036227    -0.82530
C294        C  0.27100845  0.64485514  0.09427820     0.97980
O295        O  0.26575681  0.62096774  0.12706052    -0.82570
O296        O  0.32249001  0.61356591  0.09958615    -0.85210
C297        C  0.35454917  0.62183573  0.09253413     1.02500
O298        O  0.37815274  0.64058052  0.12501300    -0.77970
O299        O  0.38677476  0.70559559  0.09871728    -0.78160
C300        C  0.37898677  0.72955179  0.09252244     1.02450
O301        O  0.34098618  0.71458969  0.23253484    -0.85480
O302        O  0.27329944  0.66236413  0.20760331    -0.82550
C303        C  0.26934542  0.63880137  0.24011749     0.98000
O304        O  0.28399641  0.62055795  0.23307977    -0.82570
O305        O  0.33559868  0.60548358  0.20625538    -0.85180
C306        C  0.35903891  0.62534836  0.23828152     1.02470
O307        O  0.37770116  0.65879188  0.23136622    -0.78000
O308        O  0.39412955  0.72649675  0.20564146    -0.78150
C309        C  0.37429926  0.72987582  0.23845771     1.02430
Cr310      Cr  0.31852648  0.69507739  0.16656483     1.93740
Cr311      Cr  0.30397012  0.61818016  0.16642275     1.93210
Cr312      Cr  0.38116915  0.68181027  0.16520259     1.39100
O313        O  0.33455323  0.66501421  0.16621002    -1.23230
C314        C  0.19288102  0.60645167  0.33672524     0.02990
C315        C  0.21237132  0.61623811  0.04907622    -0.13160
C316        C  0.24994143  0.63507401  0.04745392     0.00490
C317        C  0.26811539  0.64395011  0.33354106    -0.11680
C318        C  0.24916917  0.63341885  0.28795449     0.02980
C319        C  0.21161400  0.61459836  0.28946127    -0.11100
H320        H  0.19839915  0.60962074  0.08577695     0.08580
H321        H  0.29719557  0.65796109  0.33226029     0.06110
H322        H  0.19706300  0.60524095  0.25411783     0.05960
C323        C  0.13520608  0.55581921  0.03848773    -0.09290
C324        C  0.15303443  0.58574214  0.33871864     0.06900
C325        C  0.13243008  0.59533753  0.30872422    -0.03060
C326        C  0.09501450  0.57401075  0.31019194    -0.07510
C327        C  0.07715123  0.54359431  0.34243726     0.06020
C328        C  0.09773448  0.53519708  0.04127406    -0.02540
Br329      Br  0.07665248  0.99777140  0.09244817    -0.02230
H330        H  0.15053545  0.54842555  0.06255595     0.09930
H331        H  0.07976770  0.58126779  0.28572523     0.07950
Br332      Br  0.15342063  0.63847669  0.26769921    -0.02660
C333        C  0.48038298  0.90636406  0.30083995    -0.09290
C334        C  0.46485247  0.92252853  0.32944753     0.06900
C335        C  0.43361539  0.90023547  0.02604624    -0.03060
C336        C  0.41822647  0.86290842  0.02546766    -0.07510
C337        C  0.43379166  0.84693487  0.33012969     0.06020
C338        C  0.46558959  0.86910751  0.30172477    -0.02540
Br339      Br  0.99165851  0.85034443  0.26703025    -0.02230
H340        H  0.00455483  0.92282928  0.27818722     0.09930
H341        H  0.39408494  0.84620951  0.04809636     0.07950
Br342      Br  0.41209152  0.91861535  0.07208338    -0.02660
C343        C  0.42543791  0.51879796  0.02469421    -0.09290
C344        C  0.45771211  0.53440007  0.32936415     0.06900
C345        C  0.46798643  0.56584961  0.30024082    -0.03060
C346        C  0.44677293  0.58152925  0.30174679    -0.07510
C347        C  0.41483067  0.56612802  0.33096264     0.06020
C348        C  0.40386241  0.53404982  0.02518773    -0.02540
Br349      Br  0.35858690  0.00853220  0.06122277    -0.02230
H350        H  0.41683881  0.99447674  0.04683065     0.09930
H351        H  0.45518703  0.60585661  0.27968182     0.07950
Br352      Br  0.00905570  0.58736341  0.25476283    -0.02660
C353        C  0.47964436  0.51707195  0.66380409     0.02990
C354        C  0.46318660  0.97969471  0.65809993    -0.13160
C355        C  0.48290919  0.96246689  0.32993497     0.00490
C356        C  0.02027329  0.98360147  0.33540910    -0.11680
C357        C  0.03737644  0.52106308  0.34043068     0.02980
C358        C  0.01656748  0.53734312  0.67316747    -0.11100
H359        H  0.43482961  0.96393303  0.65003048     0.08580
H360        H  0.03610753  0.97084336  0.33577716     0.06110
H361        H  0.02928195  0.56596163  0.67965149     0.05960
C362        C  0.41640889  0.80724578  0.66401862     0.02990
C363        C  0.40696035  0.78817561  0.61780945    -0.13160
C364        C  0.38934299  0.75060193  0.61837767     0.00490
C365        C  0.38148129  0.73203314  0.66501180    -0.11680
C366        C  0.38996528  0.75053059  0.37796319     0.02980
C367        C  0.40709800  0.78812373  0.37750068    -0.11100
H368        H  0.41198859  0.80243532  0.58169114     0.08580
H369        H  0.36719670  0.70287910  0.66531425     0.06110
H370        H  0.41350947  0.80244819  0.41335242     0.05960
C371        C  0.39331746  0.58375903  0.66478591     0.02990
C372        C  0.38455730  0.59397207  0.37802032    -0.13160
C373        C  0.36440642  0.61088351  0.37822188     0.00490
C374        C  0.35423801  0.61880151  0.66514077    -0.11680
C375        C  0.36420739  0.61031226  0.61862174     0.02980
C376        C  0.38326806  0.59232405  0.61836310    -0.11100
H377        H  0.39324649  0.58864706  0.41388049     0.08580
H378        H  0.33982077  0.63311016  0.66512749     0.06110
H379        H  0.39123620  0.58604828  0.58222833     0.05960
O380        O  0.36044666  0.73426088  0.45933533    -0.85490
O381        O  0.29533914  0.67705169  0.43369493    -0.82530
C382        C  0.27101136  0.64485472  0.42761143     0.97980
O383        O  0.26576012  0.62096707  0.46039305    -0.82570
O384        O  0.32249355  0.61356496  0.43291927    -0.85210
C385        C  0.35455278  0.62183493  0.42586686     1.02500
O386        O  0.37815643  0.64057982  0.45834569    -0.77970
O387        O  0.38677895  0.70559536  0.43205061    -0.78160
C388        C  0.37899096  0.72955158  0.42585561     1.02450
O389        O  0.34098927  0.71458893  0.56586734    -0.85480
O390        O  0.27330274  0.66236373  0.54093526    -0.82550
C391        C  0.26934817  0.63880080  0.57344947     0.98000
O392        O  0.28399933  0.62055746  0.56641246    -0.82570
O393        O  0.33560153  0.60548283  0.53958884    -0.85180
C394        C  0.35904116  0.62534759  0.57161561     1.02470
O395        O  0.37770412  0.65879099  0.56469966    -0.78000
O396        O  0.39413289  0.72649591  0.53897532    -0.78150
C397        C  0.37430225  0.72987508  0.57179090     1.02430
Cr398      Cr  0.31853001  0.69507682  0.49989727     1.93740
Cr399      Cr  0.30397337  0.61817950  0.49975564     1.93210
Cr400      Cr  0.38117266  0.68180955  0.49853586     1.39100
O401        O  0.33455668  0.66501356  0.49954269    -1.23230
C402        C  0.19288128  0.60645042  0.67005309     0.02990
C403        C  0.21237334  0.61623941  0.38241088    -0.13160
C404        C  0.24994354  0.63507408  0.38078804     0.00490
C405        C  0.26811569  0.64394944  0.66687301    -0.11680
C406        C  0.24917069  0.63341782  0.62128541     0.02980
C407        C  0.21161546  0.61459704  0.62279015    -0.11100
H408        H  0.19840136  0.60962201  0.41911174     0.08580
H409        H  0.29719589  0.65796069  0.66559387     0.06110
H410        H  0.19706539  0.60523937  0.58744602     0.05960
C411        C  0.13520691  0.55582187  0.37181975    -0.09290
C412        C  0.15303471  0.58574026  0.67204495     0.06900
C413        C  0.13243027  0.59533504  0.64204960    -0.03060
C414        C  0.09501463  0.57400862  0.64351851    -0.07510
C415        C  0.07715159  0.54359305  0.67576544     0.06020
C416        C  0.09773526  0.53519876  0.37460177    -0.02540
Br417      Br  0.07665127  0.99777159  0.42577363    -0.02230
H418        H  0.15053545  0.54842794  0.39588932     0.09930
H419        H  0.07976758  0.58126530  0.61905173     0.07950
Br420      Br  0.15342072  0.63847294  0.60102183    -0.02660
C421        C  0.48038183  0.90636389  0.63417128    -0.09290
C422        C  0.46485159  0.92252833  0.66277963     0.06900
C423        C  0.43362154  0.90023590  0.35937269    -0.03060
C424        C  0.41823362  0.86290895  0.35879814    -0.07510
C425        C  0.43379115  0.84693464  0.66346182     0.06020
C426        C  0.46558883  0.86910742  0.63505638    -0.02540
Br427      Br  0.99165842  0.85034497  0.60036222    -0.02230
H428        H  0.00455342  0.92282913  0.61151823     0.09930
H429        H  0.39409290  0.84621068  0.38142875     0.07950
Br430      Br  0.41209833  0.91861723  0.40540838    -0.02660
C431        C  0.42543863  0.51879509  0.35801295    -0.09290
C432        C  0.45771288  0.53440076  0.66270225     0.06900
C433        C  0.46798685  0.56585037  0.63357932    -0.03060
C434        C  0.44677343  0.58153002  0.63508652    -0.07510
C435        C  0.41483141  0.56612872  0.66430296     0.06020
C436        C  0.40386363  0.53404757  0.35850976    -0.02540
Br437      Br  0.35858832  0.00852931  0.39454542    -0.02230
H438        H  0.41683942  0.99447307  0.38014777     0.09930
H439        H  0.45518716  0.60585725  0.61302141     0.07950
Br440      Br  0.00905518  0.58736407  0.58809952    -0.02660
C441        C  0.47964263  0.51707325  0.99715107     0.02990
C442        C  0.46318431  0.97969598  0.99144627    -0.13160
C443        C  0.48290873  0.96246675  0.66326786     0.00490
C444        C  0.02027303  0.98360079  0.66874011    -0.11680
C445        C  0.03737676  0.52106245  0.67376104     0.02980
C446        C  0.01656549  0.53734374  0.00651611    -0.11100
H447        H  0.43482757  0.96393484  0.98337494     0.08580
H448        H  0.03610698  0.97084235  0.66910643     0.06110
H449        H  0.02928032  0.56596233  0.01299975     0.05960
C450        C  0.41640293  0.80724626  0.99735353     0.02990
C451        C  0.40695467  0.78817662  0.95114385    -0.13160
C452        C  0.38933910  0.75060295  0.95171123     0.00490
C453        C  0.38147900  0.73203387  0.99834492    -0.11680
C454        C  0.38996372  0.75053050  0.71129668     0.02980
C455        C  0.40709628  0.78812362  0.71083364    -0.11100
H456        H  0.41198219  0.80243664  0.91502598     0.08580
H457        H  0.36719576  0.70287987  0.99864685     0.06110
H458        H  0.41350645  0.80244817  0.74668524     0.05960
C459        C  0.39331569  0.58375983  0.99811922     0.02990
C460        C  0.38455599  0.59397197  0.71135801    -0.13160
C461        C  0.36440492  0.61088326  0.71155741     0.00490
C462        C  0.35423531  0.61880124  0.99847387    -0.11680
C463        C  0.36420481  0.61031217  0.95195488     0.02980
C464        C  0.38326616  0.59232453  0.95169620    -0.11100
H465        H  0.39324462  0.58864739  0.74721900     0.08580
H466        H  0.33981764  0.63310948  0.99846075     0.06110
H467        H  0.39123449  0.58604886  0.91556154     0.05960
O468        O  0.36044326  0.73426083  0.79266794    -0.85490
O469        O  0.29533615  0.67705153  0.76702798    -0.82530
C470        C  0.27100896  0.64485447  0.76094378     0.97980
O471        O  0.26575728  0.62096696  0.79372588    -0.82570
O472        O  0.32249130  0.61356545  0.76625271    -0.85210
C473        C  0.35455059  0.62183524  0.75920138     1.02500
O474        O  0.37815379  0.64058021  0.79168069    -0.77970
O475        O  0.38677628  0.70559551  0.76538527    -0.78160
C476        C  0.37898826  0.72955158  0.75918925     1.02450
O477        O  0.34098570  0.71458976  0.89920041    -0.85480
O478        O  0.27329935  0.66236373  0.87426916    -0.82550
C479        C  0.26934468  0.63880057  0.90678321     0.98000
O480        O  0.28399564  0.62055706  0.89974562    -0.82570
O481        O  0.33559851  0.60548294  0.87292250    -0.85180
C482        C  0.35903821  0.62534762  0.90494926     1.02470
O483        O  0.37770055  0.65879115  0.89803419    -0.78000
O484        O  0.39412942  0.72649629  0.87230968    -0.78150
C485        C  0.37429863  0.72987598  0.90512440     1.02430
Cr486      Cr  0.31852661  0.69507690  0.83323048     1.93740
Cr487      Cr  0.30397040  0.61817958  0.83308896     1.93210
Cr488      Cr  0.38116949  0.68180983  0.83187052     1.39100
O489        O  0.33455349  0.66501374  0.83287661    -1.23230
C490        C  0.19287917  0.60644905  0.00339054     0.02990
C491        C  0.21237241  0.61623871  0.71573977    -0.13160
C492        C  0.24994256  0.63507357  0.71411902     0.00490
C493        C  0.26811365  0.64395017  0.00020708    -0.11680
C494        C  0.24916776  0.63341775  0.95462009     0.02980
C495        C  0.21161240  0.61459591  0.95612662    -0.11100
H496        H  0.19839949  0.60962145  0.75243990     0.08580
H497        H  0.29719388  0.65796208  0.99892680     0.06110
H498        H  0.19706154  0.60523776  0.92078319     0.05960
C499        C  0.13520733  0.55582045  0.70514689    -0.09290
C500        C  0.15303256  0.58573866  0.00538485     0.06900
C501        C  0.13242721  0.59533372  0.97539226    -0.03060
C502        C  0.09501155  0.57400789  0.97686439    -0.07510
C503        C  0.07714930  0.54359270  0.00911221     0.06020
C504        C  0.09773576  0.53519765  0.70792975    -0.02540
Br505      Br  0.07665235  0.99777054  0.75910252    -0.02230
H506        H  0.15053595  0.54842684  0.72921683     0.09930
H507        H  0.07976387  0.58126477  0.95239931     0.07950
Br508      Br  0.15341657  0.63847150  0.93436444    -0.02660
C509        C  0.48037825  0.90636509  0.96751513    -0.09290
C510        C  0.46484776  0.92252897  0.99612417     0.06900
C511        C  0.43362097  0.90023560  0.69270530    -0.03060
C512        C  0.41823314  0.86290866  0.69213053    -0.07510
C513        C  0.43378494  0.84693504  0.99679846     0.06020
C514        C  0.46558399  0.86910845  0.96839632    -0.02540
Br515      Br  0.99165360  0.85034628  0.93370162    -0.02230
H516        H  0.00455086  0.92283083  0.94486429     0.09930
H517        H  0.39409260  0.84621037  0.71476148     0.07950
Br518      Br  0.41209825  0.91861663  0.73874241    -0.02660
C519        C  0.42544001  0.51879605  0.69135254    -0.09290
C520        C  0.45771170  0.53440251  0.99604620     0.06900
C521        C  0.46798628  0.56585146  0.96692123    -0.03060
C522        C  0.44677220  0.58153047  0.96842380    -0.07510
C523        C  0.41482925  0.56612924  0.99763794     0.06020
C524        C  0.40386496  0.53404852  0.69185046    -0.02540
Br525      Br  0.35859049  0.00853076  0.72788759    -0.02230
H526        H  0.41684140  0.99447448  0.71348774     0.09930
H527        H  0.45518634  0.60585729  0.94635743     0.07950
Br528      Br  0.00905649  0.58736511  0.92144515    -0.02660
C529        C  0.97964380  0.01707151  0.33046796     0.02990
C530        C  0.96318686  0.47969445  0.32476409    -0.13160
C531        C  0.98290569  0.46246736  0.99661520     0.00490
C532        C  0.52026984  0.48360076  0.00208935    -0.11680
C533        C  0.53737425  0.02106251  0.00711036     0.02980
C534        C  0.51656651  0.03734312  0.33983424    -0.11100
H535        H  0.93483011  0.46393231  0.31669322     0.08580
H536        H  0.53610329  0.47084180  0.00245594     0.06110
H537        H  0.52928027  0.06596160  0.34631796     0.05960
C538        C  0.91640952  0.30724617  0.33068584     0.02990
C539        C  0.90695922  0.28817621  0.28447656    -0.13160
C540        C  0.88934137  0.25060249  0.28504439     0.00490
C541        C  0.88148138  0.23203349  0.33167811    -0.11680
C542        C  0.88996163  0.25053079  0.04463015     0.02980
C543        C  0.90709221  0.28812370  0.04416799    -0.11100
H544        H  0.91198663  0.30243613  0.24835860     0.08580
H545        H  0.86719660  0.20287944  0.33198029     0.06110
H546        H  0.91350216  0.30244787  0.08001990     0.05960
C547        C  0.89331690  0.08375858  0.33144712     0.02990
C548        C  0.88455390  0.09397262  0.04469112    -0.13160
C549        C  0.86440230  0.11088316  0.04489035     0.00490
C550        C  0.85423784  0.11880146  0.33180645    -0.11680
C551        C  0.86420597  0.11031236  0.28528635     0.02980
C552        C  0.88326663  0.09232405  0.28502539    -0.11100
H553        H  0.89324292  0.08864861  0.08055220     0.08580
H554        H  0.83982061  0.13311015  0.33179493     0.06110
H555        H  0.89123389  0.08604840  0.24888981     0.05960
O556        O  0.86044335  0.23426151  0.12600255    -0.85490
O557        O  0.79533586  0.17705275  0.10036234    -0.82530
C558        C  0.77100849  0.14485570  0.09427828     0.97980
O559        O  0.76575667  0.12096824  0.12706061    -0.82570
O560        O  0.82248955  0.11356583  0.09958620    -0.85210
C561        C  0.85454864  0.12183537  0.09253421     1.02500
O562        O  0.87815225  0.14058003  0.12501308    -0.77970
O563        O  0.88677488  0.20559536  0.09871734    -0.78160
C564        C  0.87898715  0.22955176  0.09252247     1.02450
O565        O  0.84098664  0.21459001  0.23253486    -0.85480
O566        O  0.77329971  0.16236482  0.20760346    -0.82550
C567        C  0.76934543  0.13880192  0.24011758     0.98000
O568        O  0.78399616  0.12055826  0.23307983    -0.82570
O569        O  0.83559805  0.10548332  0.20625546    -0.85180
C570        C  0.85903838  0.12534796  0.23828157     1.02470
O571        O  0.87770085  0.15879147  0.23136629    -0.78000
O572        O  0.89412985  0.22649654  0.20564153    -0.78150
C573        C  0.87429970  0.22987589  0.23845773     1.02430
Cr574      Cr  0.81852681  0.19507777  0.16656489     1.93740
Cr575      Cr  0.80396978  0.11818029  0.16642281     1.93210
Cr576      Cr  0.88116905  0.18180997  0.16520266     1.39100
O577        O  0.83455320  0.16501428  0.16621009    -1.23230
C578        C  0.69288098  0.10645206  0.33672529     0.02990
C579        C  0.71237135  0.11623867  0.04907625    -0.13160
C580        C  0.74994147  0.13507469  0.04745398     0.00490
C581        C  0.76811538  0.14395081  0.33354113    -0.11680
C582        C  0.74916917  0.13341948  0.28795456     0.02980
C583        C  0.71161399  0.11459882  0.28946134    -0.11100
H584        H  0.69839917  0.10962123  0.08577697     0.08580
H585        H  0.79719557  0.15796186  0.33226035     0.06110
H586        H  0.69706302  0.10524132  0.25411789     0.05960
C587        C  0.63520618  0.05581953  0.03848772    -0.09290
C588        C  0.65303435  0.08574238  0.33871862     0.06900
C589        C  0.63242992  0.09533755  0.30872399    -0.03060
C590        C  0.59501433  0.07401065  0.31019168    -0.07510
C591        C  0.57715112  0.04359429  0.34243714     0.06020
C592        C  0.59773458  0.03519727  0.04127402    -0.02540
Br593      Br  0.57665245  0.49777127  0.09244838    -0.02230
H594        H  0.65053560  0.04842596  0.06255598     0.09930
H595        H  0.57976749  0.08126756  0.28572484     0.07950
Br596      Br  0.65342031  0.13847657  0.26769870    -0.02660
C597        C  0.98038314  0.40636425  0.30083948    -0.09290
C598        C  0.96485260  0.42252868  0.32944711     0.06900
C599        C  0.93361555  0.40023538  0.02604608    -0.03060
C600        C  0.91822678  0.36290834  0.02546762    -0.07510
C601        C  0.93379204  0.34693502  0.33012951     0.06020
C602        C  0.96558988  0.36910772  0.30172440    -0.02540
Br603      Br  0.49165826  0.35034461  0.26702991    -0.02230
H604        H  0.50455467  0.42282945  0.27818721     0.09930
H605        H  0.89408529  0.34620939  0.04809638     0.07950
Br606      Br  0.91209160  0.41861519  0.07208319    -0.02660
C607        C  0.92543786  0.01879788  0.02469433    -0.09290
C608        C  0.95771175  0.03439968  0.32936373     0.06900
C609        C  0.96798589  0.06584916  0.30024035    -0.03060
C610        C  0.94677230  0.08152871  0.30174644    -0.07510
C611        C  0.91483009  0.06612744  0.33096244     0.06020
C612        C  0.90386226  0.03404964  0.02518792    -0.02540
Br613      Br  0.85858689  0.50853215  0.06122259    -0.02230
H614        H  0.91683877  0.49447666  0.04683041     0.09930
H615        H  0.95518629  0.10585603  0.27968144     0.07950
Br616      Br  0.50905501  0.08736260  0.25476185    -0.02660
C617        C  0.97964448  0.01707203  0.66380460     0.02990
C618        C  0.96318661  0.47969464  0.65809939    -0.13160
C619        C  0.98290931  0.46246705  0.32993467     0.00490
C620        C  0.52027327  0.48360150  0.33540950    -0.11680
C621        C  0.53737631  0.02106299  0.34043063     0.02980
C622        C  0.51656755  0.03734306  0.67316829    -0.11100
H623        H  0.93482961  0.46393287  0.65003006     0.08580
H624        H  0.53610744  0.47084332  0.33577748     0.06110
H625        H  0.52928208  0.06596156  0.67965240     0.05960
C626        C  0.91640949  0.30724583  0.66401870     0.02990
C627        C  0.90696097  0.28817568  0.61780951    -0.13160
C628        C  0.88934358  0.25060198  0.61837768     0.00490
C629        C  0.88148188  0.23203317  0.66501179    -0.11680
C630        C  0.88996583  0.25053072  0.37796316     0.02980
C631        C  0.90709850  0.28812387  0.37750062    -0.11100
H632        H  0.91198920  0.30243540  0.58169121     0.08580
H633        H  0.86719723  0.20287913  0.66531421     0.06110
H634        H  0.91350991  0.30244834  0.41335234     0.05960
C635        C  0.89331732  0.08375892  0.66478608     0.02990
C636        C  0.88455666  0.09397144  0.37802028    -0.13160
C637        C  0.86440584  0.11088297  0.37822190     0.00490
C638        C  0.85423747  0.11880101  0.66514078    -0.11680
C639        C  0.86420705  0.11031193  0.61862177     0.02980
C640        C  0.88326795  0.09232393  0.61836321    -0.11100
H641        H  0.89324588  0.08864643  0.41388042     0.08580
H642        H  0.83982012  0.13310956  0.66512745     0.06110
H643        H  0.89123627  0.08604831  0.58222848     0.05960
O644        O  0.86044713  0.23426109  0.45933529    -0.85490
O645        O  0.79533935  0.17705212  0.43369500    -0.82530
C646        C  0.77101140  0.14485521  0.42761151     0.97980
O647        O  0.76576007  0.12096751  0.46039311    -0.82570
O648        O  0.82249322  0.11356486  0.43291935    -0.85210
C649        C  0.85455238  0.12183459  0.42586688     1.02500
O650        O  0.87815613  0.14057948  0.45834560    -0.77970
O651        O  0.88677911  0.20559527  0.43205057    -0.78160
C652        C  0.87899136  0.22955166  0.42585559     1.02450
O653        O  0.84098977  0.21458924  0.56586734    -0.85480
O654        O  0.77330306  0.16236437  0.54093539    -0.82550
C655        C  0.76934826  0.13880132  0.57344955     0.98000
O656        O  0.78399922  0.12055780  0.56641252    -0.82570
O657        O  0.83560109  0.10548266  0.53958897    -0.85180
C658        C  0.85904089  0.12534733  0.57161563     1.02470
O659        O  0.87770405  0.15879071  0.56469959    -0.78000
O660        O  0.89413324  0.22649579  0.53897532    -0.78150
C661        C  0.87430273  0.22987517  0.57179090     1.02430
Cr662      Cr  0.81853037  0.19507719  0.49989730     1.93740
Cr663      Cr  0.80397317  0.11817965  0.49975571     1.93210
Cr664      Cr  0.88117268  0.18180935  0.49853581     1.39100
O665        O  0.83455674  0.16501366  0.49954270    -1.23230
C666        C  0.69288133  0.10645054  0.67005319     0.02990
C667        C  0.71237332  0.11623985  0.38241095    -0.13160
C668        C  0.74994354  0.13507467  0.38078812     0.00490
C669        C  0.76811576  0.14395015  0.66687306    -0.11680
C670        C  0.74917075  0.13341839  0.62128547     0.02980
C671        C  0.71161551  0.11459733  0.62279023    -0.11100
H672        H  0.69840133  0.10962236  0.41911181     0.08580
H673        H  0.79719598  0.15796156  0.66559390     0.06110
H674        H  0.69706545  0.10523957  0.58744612     0.05960
C675        C  0.63520688  0.05582214  0.37181983    -0.09290
C676        C  0.65303475  0.08574019  0.67204508     0.06900
C677        C  0.63243020  0.09533497  0.64205000    -0.03060
C678        C  0.59501456  0.07400849  0.64351906    -0.07510
C679        C  0.57715161  0.04359285  0.67576587     0.06020
C680        C  0.59773522  0.03519891  0.37460178    -0.02540
Br681      Br  0.57665141  0.49777146  0.42577381    -0.02230
H682        H  0.65053546  0.04842834  0.39588953     0.09930
H683        H  0.57976744  0.08126522  0.61905248     0.07950
Br684      Br  0.65342048  0.13847296  0.60102246    -0.02660
C685        C  0.98038219  0.40636397  0.63417110    -0.09290
C686        C  0.96485186  0.42252837  0.66277934     0.06900
C687        C  0.93362174  0.40023600  0.35937238    -0.03060
C688        C  0.91823396  0.36290906  0.35879796    -0.07510
C689        C  0.93379171  0.34693470  0.66346191     0.06020
C690        C  0.96558934  0.36910752  0.63505640    -0.02540
Br691      Br  0.49165853  0.35034497  0.60036254    -0.02230
H692        H  0.50455352  0.42282914  0.61151841     0.09930
H693        H  0.89409330  0.34621076  0.38142867     0.07950
Br694      Br  0.91209848  0.41861728  0.40540803    -0.02660
C695        C  0.92543830  0.01879464  0.35801263    -0.09290
C696        C  0.95771304  0.03440090  0.66270285     0.06900
C697        C  0.96798705  0.06585058  0.63358005    -0.03060
C698        C  0.94677353  0.08153014  0.63508709    -0.07510
C699        C  0.91483140  0.06612872  0.66430329     0.06020
C700        C  0.90386319  0.03404701  0.35850954    -0.02540
Br701      Br  0.85858850  0.50852950  0.39454531    -0.02230
H702        H  0.91683954  0.49447321  0.38014759     0.09930
H703        H  0.95518726  0.10585740  0.61302204     0.07950
Br704      Br  0.50905553  0.08736417  0.58810032    -0.02660
C705        C  0.97964262  0.01707328  0.99715098     0.02990
C706        C  0.96318432  0.47969594  0.99144611    -0.13160
C707        C  0.98290885  0.46246679  0.66326736     0.00490
C708        C  0.52027300  0.48360085  0.66874004    -0.11680
C709        C  0.53737676  0.02106230  0.67376170     0.02980
C710        C  0.51656549  0.03734379  0.00651616    -0.11100
H711        H  0.93482759  0.46393479  0.98337478     0.08580
H712        H  0.53610700  0.47084245  0.66910656     0.06110
H713        H  0.52928032  0.06596238  0.01299972     0.05960
C714        C  0.91640342  0.30724625  0.99735353     0.02990
C715        C  0.90695517  0.28817660  0.95114387    -0.13160
C716        C  0.88933964  0.25060294  0.95171124     0.00490
C717        C  0.88147957  0.23203386  0.99834493    -0.11680
C718        C  0.88996428  0.25053051  0.71129670     0.02980
C719        C  0.90709685  0.28812363  0.71083370    -0.11100
H720        H  0.91198264  0.30243662  0.91502599     0.08580
H721        H  0.86719631  0.20287985  0.99864685     0.06110
H722        H  0.91350698  0.30244816  0.74668531     0.05960
C723        C  0.89331527  0.08375949  0.99811937     0.02990
C724        C  0.88455566  0.09397173  0.71135813    -0.13160
C725        C  0.86440442  0.11088285  0.71155746     0.00490
C726        C  0.85423464  0.11880067  0.99847394    -0.11680
C727        C  0.86420426  0.11031170  0.95195496     0.02980
C728        C  0.88326573  0.09232418  0.95169633    -0.11100
H729        H  0.89324430  0.08864722  0.74721916     0.08580
H730        H  0.83981693  0.13310887  0.99846077     0.06110
H731        H  0.89123418  0.08604860  0.91556168     0.05960
O732        O  0.86044375  0.23426096  0.79266793    -0.85490
O733        O  0.79533640  0.17705192  0.76702801    -0.82530
C734        C  0.77100905  0.14485492  0.76094385     0.97980
O735        O  0.76575720  0.12096738  0.79372599    -0.82570
O736        O  0.82249093  0.11356535  0.76625277    -0.85210
C737        C  0.85455015  0.12183492  0.75920143     1.02500
O738        O  0.87815340  0.14057976  0.79168077    -0.77970
O739        O  0.88677643  0.20559530  0.76538531    -0.78160
C740        C  0.87898866  0.22955155  0.75918927     1.02450
O741        O  0.84098614  0.21459001  0.89920042    -0.85480
O742        O  0.77329963  0.16236432  0.87426925    -0.82550
C743        C  0.76934476  0.13880108  0.90678329     0.98000
O744        O  0.78399548  0.12055734  0.89974570    -0.82570
O745        O  0.83559800  0.10548269  0.87292261    -0.85180
C746        C  0.85903778  0.12534726  0.90494934     1.02470
O747        O  0.87770034  0.15879077  0.89803425    -0.78000
O748        O  0.89412973  0.22649608  0.87230974    -0.78150
C749        C  0.87429906  0.22987598  0.90512443     1.02430
Cr750      Cr  0.81852696  0.19507722  0.83323051     1.93740
Cr751      Cr  0.80397014  0.11817968  0.83308904     1.93210
Cr752      Cr  0.88116945  0.18180954  0.83187057     1.39100
O753        O  0.83455350  0.16501378  0.83287667    -1.23230
C754        C  0.69287921  0.10644952  0.00339056     0.02990
C755        C  0.71237247  0.11623893  0.71573985    -0.13160
C756        C  0.74994264  0.13507410  0.71411910     0.00490
C757        C  0.76811370  0.14395088  0.00020713    -0.11680
C758        C  0.74916782  0.13341837  0.95462014     0.02980
C759        C  0.71161246  0.11459640  0.95612665    -0.11100
H760        H  0.69839954  0.10962150  0.75243999     0.08580
H761        H  0.79719394  0.15796285  0.99892687     0.06110
H762        H  0.69706162  0.10523816  0.92078323     0.05960
C763        C  0.63520748  0.05582026  0.70514684    -0.09290
C764        C  0.65303258  0.08573898  0.00538484     0.06900
C765        C  0.63242715  0.09533390  0.97539218    -0.03060
C766        C  0.59501150  0.07400795  0.97686429    -0.07510
C767        C  0.57714931  0.04359278  0.00911216     0.06020
C768        C  0.59773590  0.03519738  0.70792984    -0.02540
Br769      Br  0.57665216  0.49777103  0.75910289    -0.02230
H770        H  0.65053620  0.04842665  0.72921657     0.09930
H771        H  0.57976377  0.08126475  0.95239918     0.07950
Br772      Br  0.65341637  0.13847164  0.93436428    -0.02660
C773        C  0.98037841  0.40636512  0.96751488    -0.09290
C774        C  0.96484785  0.42252893  0.99612392     0.06900
C775        C  0.93362134  0.40023562  0.69270519    -0.03060
C776        C  0.91823364  0.36290868  0.69213060    -0.07510
C777        C  0.93378533  0.34693503  0.99679843     0.06020
C778        C  0.96558430  0.36910850  0.96839618    -0.02540
Br779      Br  0.49165354  0.35034631  0.93370157    -0.02230
H780        H  0.50455081  0.42283084  0.94486436     0.09930
H781        H  0.89409317  0.34621038  0.71476164     0.07950
Br782      Br  0.91209864  0.41861666  0.73874230    -0.02660
C783        C  0.92544009  0.01879612  0.69135297    -0.09290
C784        C  0.95771162  0.03440249  0.99604626     0.06900
C785        C  0.96798610  0.06585144  0.96692133    -0.03060
C786        C  0.94677192  0.08153035  0.96842396    -0.07510
C787        C  0.91482898  0.06612904  0.99763813     0.06020
C788        C  0.90386497  0.03404851  0.69185077    -0.02540
Br789      Br  0.85859052  0.50853063  0.72788764    -0.02230
H790        H  0.91684138  0.49447434  0.71348725     0.09930
H791        H  0.95518599  0.10585716  0.94635760     0.07950
Br792      Br  0.50905633  0.08736495  0.92144496    -0.02660
C793        C  0.97964400  0.51707174  0.33046826     0.02990
C794        C  0.96318673  0.97969422  0.32476400    -0.13160
C795        C  0.98290572  0.96246741  0.99661519     0.00490
C796        C  0.52026986  0.98360082  0.00208937    -0.11680
C797        C  0.53737424  0.52106244  0.00711043     0.02980
C798        C  0.51656668  0.53734326  0.33983466    -0.11100
H799        H  0.93482997  0.96393201  0.31669323     0.08580
H800        H  0.53610333  0.97084187  0.00245597     0.06110
H801        H  0.52928050  0.56596172  0.34631858     0.05960
C802        C  0.91640935  0.80724604  0.33068594     0.02990
C803        C  0.90695903  0.78817610  0.28447664    -0.13160
C804        C  0.88934108  0.75060237  0.28504444     0.00490
C805        C  0.88148103  0.73203335  0.33167816    -0.11680
C806        C  0.88996134  0.75053079  0.04463015     0.02980
C807        C  0.90709197  0.78812370  0.04416799    -0.11100
H808        H  0.91198650  0.80243605  0.24835869     0.08580
H809        H  0.86719620  0.70287930  0.33198032     0.06110
H810        H  0.91350196  0.80244786  0.08001991     0.05960
C811        C  0.89331738  0.58375904  0.33144725     0.02990
C812        C  0.88455415  0.59397280  0.04469104    -0.13160
C813        C  0.86440258  0.61088337  0.04489031     0.00490
C814        C  0.85423806  0.61880164  0.33180646    -0.11680
C815        C  0.86420632  0.61031263  0.28528638     0.02980
C816        C  0.88326711  0.59232447  0.28502548    -0.11100
H817        H  0.89324316  0.58864876  0.08055210     0.08580
H818        H  0.83982072  0.63311021  0.33179490     0.06110
H819        H  0.89123445  0.58604887  0.24888993     0.05960
O820        O  0.86044309  0.73426141  0.12600256    -0.85490
O821        O  0.79533574  0.67705246  0.10036233    -0.82530
C822        C  0.77100845  0.64485539  0.09427826     0.97980
O823        O  0.76575673  0.62096796  0.12706059    -0.82570
O824        O  0.82248975  0.61356581  0.09958621    -0.85210
C825        C  0.85454888  0.62183550  0.09253418     1.02500
O826        O  0.87815248  0.64058024  0.12501303    -0.77970
O827        O  0.88677479  0.70559545  0.09871730    -0.78160
C828        C  0.87898694  0.72955175  0.09252247     1.02450
O829        O  0.84098640  0.71458981  0.23253487    -0.85480
O830        O  0.77329956  0.66236444  0.20760339    -0.82550
C831        C  0.76934541  0.63880162  0.24011755     0.98000
O832        O  0.78399628  0.62055809  0.23307983    -0.82570
O833        O  0.83559835  0.60548343  0.20625548    -0.85180
C834        C  0.85903865  0.62534814  0.23828157     1.02470
O835        O  0.87770102  0.65879165  0.23136625    -0.78000
O836        O  0.89412969  0.72649661  0.20564150    -0.78150
C837        C  0.87429947  0.72987581  0.23845774     1.02430
Cr838      Cr  0.81852663  0.69507755  0.16656488     1.93740
Cr839      Cr  0.80396993  0.61818019  0.16642282     1.93210
Cr840      Cr  0.88116909  0.68181009  0.16520262     1.39100
O841        O  0.83455320  0.66501421  0.16621007    -1.23230
C842        C  0.69288100  0.60645184  0.33672528     0.02990
C843        C  0.71237131  0.61623833  0.04907628    -0.13160
C844        C  0.74994143  0.63507431  0.04745398     0.00490
C845        C  0.76811538  0.64395045  0.33354111    -0.11680
C846        C  0.74916916  0.63341916  0.28795454     0.02980
C847        C  0.71161398  0.61459858  0.28946132    -0.11100
H848        H  0.69839915  0.60962091  0.08577702     0.08580
H849        H  0.79719556  0.65796147  0.33226033     0.06110
H850        H  0.69706299  0.60524112  0.25411788     0.05960
C851        C  0.63520611  0.55581929  0.03848778    -0.09290
C852        C  0.65303440  0.58574223  0.33871868     0.06900
C853        C  0.63243000  0.59533754  0.30872424    -0.03060
C854        C  0.59501442  0.57401070  0.31019200    -0.07510
C855        C  0.57715121  0.54359429  0.34243736     0.06020
C856        C  0.59773451  0.53519710  0.04127410    -0.02540
Br857      Br  0.57665256  0.99777146  0.09244834    -0.02230
H858        H  0.65053551  0.54842567  0.06255600     0.09930
H859        H  0.57976759  0.58126770  0.28572528     0.07950
Br860      Br  0.65342046  0.63847667  0.26769918    -0.02660
C861        C  0.98038314  0.90636408  0.30083972    -0.09290
C862        C  0.96485260  0.92252855  0.32944728     0.06900
C863        C  0.93361556  0.90023546  0.02604617    -0.03060
C864        C  0.91822671  0.86290841  0.02546769    -0.07510
C865        C  0.93379195  0.84693488  0.33012968     0.06020
C866        C  0.96558983  0.86910755  0.30172465    -0.02540
Br867      Br  0.49165822  0.85034435  0.26703035    -0.02230
H868        H  0.50455471  0.92282925  0.27818753     0.09930
H869        H  0.89408523  0.84620950  0.04809647     0.07950
Br870      Br  0.91209172  0.91861533  0.07208338    -0.02660
C871        C  0.92543785  0.51879788  0.02469418    -0.09290
C872        C  0.95771208  0.53440002  0.32936405     0.06900
C873        C  0.96798639  0.56584963  0.30024086    -0.03060
C874        C  0.94677285  0.58152922  0.30174689    -0.07510
C875        C  0.91483055  0.56612791  0.33096268     0.06020
C876        C  0.90386231  0.53404969  0.02518775    -0.02540
Br877      Br  0.85858688  0.00853206  0.06122285    -0.02230
H878        H  0.91683883  0.99447669  0.04683058     0.09930
H879        H  0.95518694  0.60585662  0.27968202     0.07950
Br880      Br  0.50905569  0.58736324  0.25476269    -0.02660
C881        C  0.97964440  0.51707198  0.66380392     0.02990
C882        C  0.96318663  0.97969469  0.65809989    -0.13160
C883        C  0.98290926  0.96246691  0.32993466     0.00490
C884        C  0.52027322  0.98360142  0.33540945    -0.11680
C885        C  0.53737641  0.52106306  0.34043089     0.02980
C886        C  0.51656743  0.53734307  0.67316769    -0.11100
H887        H  0.93482964  0.96393299  0.65003049     0.08580
H888        H  0.53610744  0.97084329  0.33577752     0.06110
H889        H  0.52928190  0.56596159  0.67965167     0.05960
C890        C  0.91640918  0.80724577  0.66401866     0.02990
C891        C  0.90696064  0.78817561  0.61780949    -0.13160
C892        C  0.88934324  0.75060191  0.61837769     0.00490
C893        C  0.88148153  0.73203312  0.66501181    -0.11680
C894        C  0.88996554  0.75053057  0.37796321     0.02980
C895        C  0.90709829  0.78812372  0.37750070    -0.11100
H896        H  0.91198888  0.80243532  0.58169118     0.08580
H897        H  0.86719690  0.70287907  0.66531425     0.06110
H898        H  0.91350974  0.80244819  0.41335243     0.05960
C899        C  0.89331732  0.58375892  0.66478599     0.02990
C900        C  0.88455703  0.59397183  0.37802037    -0.13160
C901        C  0.86440608  0.61088320  0.37822193     0.00490
C902        C  0.85423762  0.61880116  0.66514081    -0.11680
C903        C  0.86420709  0.61031200  0.61862179     0.02980
C904        C  0.88326789  0.59232391  0.61836317    -0.11100
H905        H  0.89324624  0.58864685  0.41388054     0.08580
H906        H  0.83982031  0.63310974  0.66512752     0.06110
H907        H  0.89123611  0.58604822  0.58222841     0.05960
O908        O  0.86044686  0.73426093  0.45933535    -0.85490
O909        O  0.79533921  0.67705188  0.43369499    -0.82530
C910        C  0.77101135  0.64485495  0.42761148     0.97980
O911        O  0.76576003  0.62096727  0.46039310    -0.82570
O912        O  0.82249330  0.61356485  0.43291932    -0.85210
C913        C  0.85455249  0.62183470  0.42586691     1.02500
O914        O  0.87815618  0.64057955  0.45834573    -0.77970
O915        O  0.88677896  0.70559522  0.43205064    -0.78160
C916        C  0.87899112  0.72955154  0.42585564     1.02450
O917        O  0.84098947  0.71458904  0.56586737    -0.85480
O918        O  0.77330284  0.66236403  0.54093534    -0.82550
C919        C  0.76934814  0.63880102  0.57344952     0.98000
O920        O  0.78399917  0.62055757  0.56641250    -0.82570
O921        O  0.83560119  0.60548266  0.53958894    -0.85180
C922        C  0.85904090  0.62534737  0.57161567     1.02470
O923        O  0.87770396  0.65879076  0.56469969    -0.78000
O924        O  0.89413301  0.72649578  0.53897535    -0.78150
C925        C  0.87430244  0.72987507  0.57179093     1.02430
Cr926      Cr  0.81853014  0.69507696  0.49989731     1.93740
Cr927      Cr  0.80397318  0.61817952  0.49975570     1.93210
Cr928      Cr  0.88117259  0.68180937  0.49853589     1.39100
O929        O  0.83455663  0.66501355  0.49954274    -1.23230
C930        C  0.69288124  0.60645055  0.67005316     0.02990
C931        C  0.71237333  0.61623962  0.38241093    -0.13160
C932        C  0.74994353  0.63507437  0.38078809     0.00490
C933        C  0.76811565  0.64394976  0.66687306    -0.11680
C934        C  0.74917065  0.63341809  0.62128546     0.02980
C935        C  0.71161541  0.61459721  0.62279021    -0.11100
H936        H  0.69840134  0.60962217  0.41911179     0.08580
H937        H  0.79719586  0.65796106  0.66559390     0.06110
H938        H  0.69706535  0.60523949  0.58744609     0.05960
C939        C  0.63520694  0.55582195  0.37181981    -0.09290
C940        C  0.65303466  0.58574031  0.67204505     0.06900
C941        C  0.63243016  0.59533502  0.64204970    -0.03060
C942        C  0.59501453  0.57400856  0.64351866    -0.07510
C943        C  0.57715153  0.54359301  0.67576565     0.06020
C944        C  0.59773528  0.53519880  0.37460185    -0.02540
Br945      Br  0.57665136  0.99777162  0.42577381    -0.02230
H946        H  0.65053551  0.54842807  0.39588938     0.09930
H947        H  0.57976744  0.58126520  0.61905188     0.07950
Br948      Br  0.65342051  0.63847289  0.60102188    -0.02660
C949        C  0.98038198  0.90636392  0.63417121    -0.09290
C950        C  0.96485171  0.92252833  0.66277955     0.06900
C951        C  0.93362173  0.90023590  0.35937255    -0.03060
C952        C  0.91823389  0.86290895  0.35879812    -0.07510
C953        C  0.93379141  0.84693464  0.66346186     0.06020
C954        C  0.96558906  0.86910746  0.63505638    -0.02540
Br955      Br  0.49165812  0.85034487  0.60036219    -0.02230
H956        H  0.50455329  0.92282909  0.61151834     0.09930
H957        H  0.89409322  0.84621068  0.38142880     0.07950
Br958      Br  0.91209853  0.91861722  0.40540825    -0.02660
C959        C  0.92543857  0.51879497  0.35801280    -0.09290
C960        C  0.95771291  0.53440079  0.66270220     0.06900
C961        C  0.96798686  0.56585045  0.63357938    -0.03060
C962        C  0.94677339  0.58153006  0.63508664    -0.07510
C963        C  0.91483136  0.56612870  0.66430306     0.06020
C964        C  0.90386353  0.53404742  0.35850969    -0.02540
Br965      Br  0.85858823  0.00852907  0.39454533    -0.02230
H966        H  0.91683938  0.99447294  0.38014753     0.09930
H967        H  0.95518709  0.60585730  0.61302158     0.07950
Br968      Br  0.50905514  0.58736386  0.58809941    -0.02660
C969        C  0.97964261  0.51707323  0.99715100     0.02990
C970        C  0.96318433  0.97969598  0.99144613    -0.13160
C971        C  0.98290879  0.96246675  0.66326775     0.00490
C972        C  0.52027297  0.98360076  0.66874024    -0.11680
C973        C  0.53737670  0.52106240  0.67376132     0.02980
C974        C  0.51656550  0.53734374  0.00651623    -0.11100
H975        H  0.93482759  0.96393482  0.98337488     0.08580
H976        H  0.53610689  0.97084229  0.66910658     0.06110
H977        H  0.52928034  0.56596232  0.01299984     0.05960
C978        C  0.91640320  0.80724625  0.99735354     0.02990
C979        C  0.90695492  0.78817661  0.95114387    -0.13160
C980        C  0.88933934  0.75060293  0.95171125     0.00490
C981        C  0.88147925  0.73203386  0.99834493    -0.11680
C982        C  0.88996396  0.75053047  0.71129670     0.02980
C983        C  0.90709654  0.78812359  0.71083368    -0.11100
H984        H  0.91198242  0.80243663  0.91502599     0.08580
H985        H  0.86719597  0.70287985  0.99864686     0.06110
H986        H  0.91350670  0.80244813  0.74668528     0.05960
C987        C  0.89331547  0.58375964  0.99811928     0.02990
C988        C  0.88455576  0.59397180  0.71135808    -0.13160
C989        C  0.86440458  0.61088298  0.71155747     0.00490
C990        C  0.85423492  0.61880089  0.99847392    -0.11680
C991        C  0.86420448  0.61031189  0.95195493     0.02980
C992        C  0.88326592  0.59232434  0.95169625    -0.11100
H993        H  0.89324443  0.58864728  0.74721908     0.08580
H994        H  0.83981721  0.63310910  0.99846079     0.06110
H995        H  0.89123432  0.58604873  0.91556159     0.05960
O996        O  0.86044346  0.73426087  0.79266795    -0.85490
O997        O  0.79533621  0.67705171  0.76702802    -0.82530
C998        C  0.77100894  0.64485469  0.76094383     0.97980
O999        O  0.76575718  0.62096715  0.79372594    -0.82570
O1000       O  0.82249104  0.61356535  0.76625276    -0.85210
C1001       C  0.85455029  0.62183502  0.75920144     1.02500
O1002       O  0.87815352  0.64057993  0.79168075    -0.77970
O1003       O  0.88677630  0.70559536  0.76538531    -0.78160
C1004       C  0.87898841  0.72955153  0.75918928     1.02450
O1005       O  0.84098588  0.71458987  0.89920043    -0.85480
O1006       O  0.77329944  0.66236402  0.87426923    -0.82550
C1007       C  0.76934467  0.63880081  0.90678327     0.98000
O1008       O  0.78399549  0.62055718  0.89974567    -0.82570
O1009       O  0.83559817  0.60548277  0.87292258    -0.85180
C1010       C  0.85903793  0.62534740  0.90494931     1.02470
O1011       O  0.87770037  0.65879092  0.89803423    -0.78000
O1012       O  0.89412953  0.72649615  0.87230972    -0.78150
C1013       C  0.87429881  0.72987597  0.90512442     1.02430
Cr1014     Cr  0.81852674  0.69507704  0.83323052     1.93740
Cr1015     Cr  0.80397020  0.61817960  0.83308902     1.93210
Cr1016     Cr  0.88116940  0.68180965  0.83187056     1.39100
O1017       O  0.83455343  0.66501373  0.83287666    -1.23230
C1018       C  0.69287916  0.60644923  0.00339061     0.02990
C1019       C  0.71237238  0.61623888  0.71573983    -0.13160
C1020       C  0.74994253  0.63507384  0.71411908     0.00490
C1021       C  0.76811364  0.64395051  0.00020713    -0.11680
C1022       C  0.74916775  0.63341805  0.95462015     0.02980
C1023       C  0.71161239  0.61459612  0.95612669    -0.11100
H1024       H  0.69839946  0.60962158  0.75243997     0.08580
H1025       H  0.79719388  0.65796247  0.99892684     0.06110
H1026       H  0.69706153  0.60523792  0.92078326     0.05960
C1027       C  0.63520733  0.55582051  0.70514702    -0.09290
C1028       C  0.65303254  0.58573876  0.00538492     0.06900
C1029       C  0.63242715  0.59533376  0.97539232    -0.03060
C1030       C  0.59501150  0.57400786  0.97686445    -0.07510
C1031       C  0.57714929  0.54359268  0.00911228     0.06020
C1032       C  0.59773575  0.53519766  0.70792993    -0.02540
Br1033     Br  0.57665241  0.99777054  0.75910251    -0.02230
H1034       H  0.65053599  0.54842694  0.72921695     0.09930
H1035       H  0.57976380  0.58126472  0.95239937     0.07950
Br1036     Br  0.65341643  0.63847154  0.93436451    -0.02660
C1037       C  0.98037835  0.90636511  0.96751493    -0.09290
C1038       C  0.96484786  0.92252897  0.99612398     0.06900
C1039       C  0.93362114  0.90023557  0.69270530    -0.03060
C1040       C  0.91823337  0.86290864  0.69213059    -0.07510
C1041       C  0.93378519  0.84693505  0.99679846     0.06020
C1042       C  0.96558418  0.86910848  0.96839621    -0.02540
Br1043     Br  0.49165338  0.85034620  0.93370175    -0.02230
H1044       H  0.50455079  0.92283080  0.94486457     0.09930
H1045       H  0.89409287  0.84621033  0.71476158     0.07950
Br1046     Br  0.91209843  0.91861658  0.73874246    -0.02660
C1047       C  0.92544004  0.51879605  0.69135252    -0.09290
C1048       C  0.95771165  0.53440247  0.99604619     0.06900
C1049       C  0.96798620  0.56585145  0.96692130    -0.03060
C1050       C  0.94677207  0.58153041  0.96842390    -0.07510
C1051       C  0.91482910  0.56612912  0.99763801     0.06020
C1052       C  0.90386496  0.53404849  0.69185052    -0.02540
Br1053     Br  0.85859043  0.00853058  0.72788764    -0.02230
H1054       H  0.91684139  0.99447439  0.71348769     0.09930
H1055       H  0.95518619  0.60585725  0.94635757     0.07950
Br1056     Br  0.50905653  0.58736500  0.92144501    -0.02660
loop_ 
_geom_bond_atom_site_label_1 
_geom_bond_atom_site_label_2 
_geom_bond_distance 
_geom_bond_site_symmetry_2 
_ccdc_geom_bond_type 
C1           C80   1.487       .  S
C1          C266   1.405   1_545  A
C1          C534   1.404       .  A
C2          C265   1.405       .  A
C2           C91   1.404       .  A
C2            H7   1.083       .  S
C3          C246   1.490       .  S
C3          C178   1.404       .  A
C3          C532   1.405   1_556  A
C4          C531   1.405   1_454  A
C4          C269   1.404       .  A
C4            H8   1.082       .  S
C5          C239   1.487       .  S
C5          C268   1.404   1_545  A
C5          C182   1.404       .  A
C6          C529   1.404   1_455  A
C6           C93   1.404       .  A
C6            H9   1.083       .  S
C10          C73   1.482       .  S
C10          C11   1.408       .  A
C10         C103   1.409       .  A
C11          C12   1.400       .  A
C11          H16   1.084       .  S
C12          C45   1.464       .  S
C12          C13   1.397       .  A
C13         C102   1.399       .  A
C13          H17   1.085       .  S
C14          C36   1.468       .  S
C14          C15   1.402       .  A
C14         C189   1.399   1_554  A
C15         C186   1.409   1_554  A
C15          H18   1.084       .  S
C19          C83   1.481       .  S
C19          C24   1.408       .  A
C19         C108   1.409       .  A
C20          C21   1.401       .  A
C20         C195   1.409   1_554  A
C20          H25   1.084       .  S
C21          C33   1.469       .  S
C21         C198   1.399   1_554  A
C22          C23   1.397       .  A
C22         C109   1.399       .  A
C22          H26   1.085       .  S
C23          C42   1.463       .  S
C23          C24   1.399       .  A
C24          H27   1.084       .  S
O28         Cr46   2.021       .  S
O28          C36   1.267       .  A
O29         Cr46   1.968       .  S
O29          C30   1.258       .  A
C30          C52   1.468       .  S
C30          O31   1.268       .  A
O31         Cr47   2.022       .  S
O32         Cr47   1.966       .  S
O32          C33   1.258       .  A
C33          O34   1.268       .  A
O34         Cr48   2.022       .  S
O35         Cr48   1.966       .  S
O35          C36   1.258       .  A
O37         Cr46   1.963       .  S
O37          C45   1.257       .  A
O38         Cr46   2.023       .  S
O38          C39   1.268       .  A
C39          C54   1.464       .  S
C39          O40   1.257       .  A
O40         Cr47   1.962       .  S
O41         Cr47   2.024       .  S
O41          C42   1.268       .  A
C42          O43   1.257       .  A
O43         Cr48   1.960       .  S
O44         Cr48   2.024       .  S
O44          C45   1.268       .  A
Cr46         O49   1.765       .  S
Cr47         O49   1.765       .  S
Cr48         O49   1.765       .  S
C50          C60   1.485       .  S
C50          C55   1.410       .  A
C50         C139   1.410       .  A
C51          C52   1.401       .  A
C51         C226   1.410       .  A
C51          H56   1.084       .  S
C52         C229   1.398       .  A
C53          C54   1.398       .  A
C53         C140   1.398       .  A
C53          H57   1.085       .  S
C54          C55   1.400       .  A
C55          H58   1.084       .  S
C59          C64   1.399       .  A
C59         C236   1.405       .  A
C59          H66   1.083       .  S
C60          C61   1.411       .  A
C60         C147   1.405       .  A
C61          C62   1.398       .  A
C61         Br68   1.921       .  S
C62          C63   1.406       .  A
C62          H67   1.083       .  S
C63          C93   1.487       .  S
C63         C152   1.413       .  A
C64         C239   1.413       .  A
C64        Br329   1.921   1_545  S
Br65        C328   1.921       .  S
C69          C70   1.407       .  A
C69          C74   1.399       .  A
C69         H604   1.083       .  S
C70          C91   1.490       .  S
C70         C159   1.416       .  A
C71          C72   1.398       .  A
C71         C246   1.416   1_554  A
C71         Br78   1.922       .  S
C72         C249   1.402   1_554  A
C72          H77   1.083       .  S
C73          C74   1.409       .  A
C73         C160   1.402       .  A
C74        Br603   1.920       .  S
Br75        C602   1.920       .  S
H76         C597   1.083   1_455  S
C79          C84   1.398       .  A
C79         C256   1.406   1_554  A
C79         H350   1.083   1_545  S
C80          C81   1.414       .  A
C80         C167   1.406       .  A
C81          C82   1.399       .  A
C81        Br616   1.921       .  S
C82          C83   1.403       .  A
C82          H87   1.084       .  S
C83         C172   1.409       .  A
C84         C259   1.409   1_554  A
C84        Br349   1.920       .  S
Br85        C348   1.920       .  S
H86         C343   1.083       .  S
Br88        C609   1.921   1_455  S
C89         C168   1.487       .  S
C89         C354   1.405   1_545  A
C89         C622   1.404       .  A
C90         C353   1.405       .  A
C90         C179   1.404       .  A
C90          H95   1.083       .  S
C91         C620   1.405       .  A
C92         C619   1.405   1_455  A
C92         C357   1.404       .  A
C92          H96   1.082       .  S
C93         C356   1.404   1_545  A
C94         C617   1.404   1_455  A
C94         C181   1.404       .  A
C94          H97   1.083       .  S
C98         C161   1.482       .  S
C98          C99   1.408       .  A
C98         C191   1.409       .  A
C99         C100   1.400       .  A
C99         H104   1.084       .  S
C100        C133   1.464       .  S
C100        C101   1.397       .  A
C101        C190   1.399       .  A
C101        H105   1.085       .  S
C102        C124   1.468       .  S
C102        C103   1.402       .  A
C103        H106   1.084       .  S
C107        C171   1.481       .  S
C107        C196   1.409       .  A
C107        C112   1.408       .  A
C108        C109   1.401       .  A
C108        H113   1.084       .  S
C109        C121   1.469       .  S
C110        C197   1.399       .  A
C110        C111   1.397       .  A
C110        H114   1.085       .  S
C111        C130   1.463       .  S
C111        C112   1.399       .  A
C112        H115   1.084       .  S
O116       Cr134   2.021       .  S
O116        C124   1.267       .  A
O117       Cr134   1.968       .  S
O117        C118   1.258       .  A
C118        C140   1.468       .  S
C118        O119   1.268       .  A
O119       Cr135   2.022       .  S
O120       Cr135   1.966       .  S
O120        C121   1.258       .  A
C121        O122   1.268       .  A
O122       Cr136   2.022       .  S
O123       Cr136   1.966       .  S
O123        C124   1.258       .  A
O125       Cr134   1.963       .  S
O125        C133   1.257       .  A
O126       Cr134   2.023       .  S
O126        C127   1.268       .  A
C127        C142   1.464       .  S
C127        O128   1.257       .  A
O128       Cr135   1.962       .  S
O129       Cr135   2.024       .  S
O129        C130   1.268       .  A
C130        O131   1.257       .  A
O131       Cr136   1.960       .  S
O132       Cr136   2.024       .  S
O132        C133   1.268       .  A
Cr134       O137   1.765       .  S
Cr135       O137   1.765       .  S
Cr136       O137   1.765       .  S
C138        C148   1.485       .  S
C138        C227   1.410       .  A
C138        C143   1.410       .  A
C139        C140   1.401       .  A
C139        H144   1.084       .  S
C141        C228   1.398       .  A
C141        C142   1.398       .  A
C141        H145   1.085       .  S
C142        C143   1.400       .  A
C143        H146   1.084       .  S
C147        C152   1.399       .  A
C147        H154   1.083       .  S
C148        C235   1.405       .  A
C148        C149   1.411       .  A
C149        C150   1.398       .  A
C149       Br156   1.921       .  S
C150        C151   1.406       .  A
C150        H155   1.083       .  S
C151        C181   1.487       .  S
C151        C240   1.413       .  A
C152       Br417   1.921   1_545  S
Br153       C416   1.921       .  S
C157        C158   1.407       .  A
C157        C162   1.399       .  A
C157        H692   1.083       .  S
C158        C179   1.490       .  S
C158        C247   1.416       .  A
C159        C160   1.398       .  A
C159       Br166   1.922       .  S
C160        H165   1.083       .  S
C161        C248   1.402       .  A
C161        C162   1.409       .  A
C162       Br691   1.920       .  S
Br163       C690   1.920       .  S
H164        C685   1.083   1_455  S
C167        C172   1.398       .  A
C167        H438   1.083   1_545  S
C168        C255   1.406       .  A
C168        C169   1.414       .  A
C169        C170   1.399       .  A
C169       Br704   1.921       .  S
C170        C171   1.403       .  A
C170        H175   1.084       .  S
C171        C260   1.409       .  A
C172       Br437   1.920       .  S
Br173       C436   1.920       .  S
H174        C431   1.083       .  S
Br176       C697   1.921   1_455  S
C177        C256   1.487       .  S
C177        C442   1.405   1_545  A
C177        C710   1.404   1_556  A
C178        C441   1.405       .  A
C178        H183   1.083       .  S
C179        C708   1.405       .  A
C180        C707   1.405   1_455  A
C180        C445   1.404       .  A
C180        H184   1.082       .  S
C181        C444   1.404   1_545  A
C182        C705   1.404   1_454  A
C182        H185   1.083       .  S
C186        C249   1.482       .  S
C186        C187   1.408       .  A
C187        C188   1.400       .  A
C187        H192   1.084       .  S
C188        C221   1.464       .  S
C188        C189   1.397       .  A
C189        H193   1.085       .  S
C190        C212   1.468       .  S
C190        C191   1.402       .  A
C191        H194   1.084       .  S
C195        C259   1.481       .  S
C195        C200   1.408       .  A
C196        C197   1.401       .  A
C196        H201   1.084       .  S
C197        C209   1.469       .  S
C198        C199   1.397       .  A
C198        H202   1.085       .  S
C199        C218   1.463       .  S
C199        C200   1.399       .  A
C200        H203   1.084       .  S
O204       Cr222   2.021       .  S
O204        C212   1.267       .  A
O205       Cr222   1.968       .  S
O205        C206   1.258       .  A
C206        C228   1.468       .  S
C206        O207   1.268       .  A
O207       Cr223   2.022       .  S
O208       Cr223   1.966       .  S
O208        C209   1.258       .  A
C209        O210   1.268       .  A
O210       Cr224   2.022       .  S
O211       Cr224   1.966       .  S
O211        C212   1.258       .  A
O213       Cr222   1.963       .  S
O213        C221   1.257       .  A
O214       Cr222   2.023       .  S
O214        C215   1.268       .  A
C215        C230   1.464       .  S
C215        O216   1.257       .  A
O216       Cr223   1.962       .  S
O217       Cr223   2.024       .  S
O217        C218   1.268       .  A
C218        O219   1.257       .  A
O219       Cr224   1.960       .  S
O220       Cr224   2.024       .  S
O220        C221   1.268       .  A
Cr222       O225   1.765       .  S
Cr223       O225   1.765       .  S
Cr224       O225   1.765       .  S
C226        C236   1.485       .  S
C226        C231   1.410   1_554  A
C227        C228   1.401       .  A
C227        H232   1.084       .  S
C229        C230   1.398   1_554  A
C229        H233   1.085   1_554  S
C230        C231   1.400       .  A
C231        H234   1.084       .  S
C235        C240   1.399       .  A
C235        H242   1.083       .  S
C236        C237   1.411   1_554  A
C237        C238   1.398       .  A
C237       Br244   1.921       .  S
C238        C239   1.406   1_556  A
C238        H243   1.083       .  S
C240       Br505   1.921   1_545  S
Br241       C504   1.921       .  S
C245        C246   1.407       .  A
C245        C250   1.399       .  A
C245        H780   1.083       .  S
C247        C248   1.398       .  A
C247       Br254   1.922       .  S
C248        H253   1.083       .  S
C249        C250   1.409       .  A
C250       Br779   1.920       .  S
Br251       C778   1.920       .  S
H252        C773   1.083   1_455  S
C255        C260   1.398       .  A
C255        H526   1.083   1_545  S
C256        C257   1.414       .  A
C257        C258   1.399       .  A
C257       Br792   1.921       .  S
C258        C259   1.403       .  A
C258        H263   1.084       .  S
C260       Br525   1.920       .  S
Br261       C524   1.920       .  S
H262        C519   1.083       .  S
Br264       C785   1.921   1_455  S
C265        C344   1.487       .  S
C265        C798   1.404       .  A
C266        C355   1.404       .  A
C266        H271   1.083       .  S
C267        C510   1.490       .  S
C267        C442   1.404       .  A
C267        C796   1.405   1_556  A
C268        C795   1.405   1_454  A
C268        H272   1.082       .  S
C269        C503   1.487       .  S
C269        C446   1.404       .  A
C270        C793   1.404   1_455  A
C270        C357   1.404       .  A
C270        H273   1.083       .  S
C274        C337   1.482       .  S
C274        C275   1.408       .  A
C274        C367   1.409       .  A
C275        C276   1.400       .  A
C275        H280   1.084       .  S
C276        C309   1.464       .  S
C276        C277   1.397       .  A
C277        C366   1.399       .  A
C277        H281   1.085       .  S
C278        C300   1.468       .  S
C278        C453   1.399   1_554  A
C278        C279   1.402       .  A
C279        C450   1.409   1_554  A
C279        H282   1.084       .  S
C283        C347   1.481       .  S
C283        C372   1.409       .  A
C283        C288   1.408       .  A
C284        C459   1.409   1_554  A
C284        C285   1.401       .  A
C284        H289   1.084       .  S
C285        C297   1.469       .  S
C285        C462   1.399   1_554  A
C286        C373   1.399       .  A
C286        C287   1.397       .  A
C286        H290   1.085       .  S
C287        C306   1.463       .  S
C287        C288   1.399       .  A
C288        H291   1.084       .  S
O292       Cr310   2.021       .  S
O292        C300   1.267       .  A
O293       Cr310   1.968       .  S
O293        C294   1.258       .  A
C294        C316   1.468       .  S
C294        O295   1.268       .  A
O295       Cr311   2.022       .  S
O296       Cr311   1.966       .  S
O296        C297   1.258       .  A
C297        O298   1.268       .  A
O298       Cr312   2.022       .  S
O299       Cr312   1.966       .  S
O299        C300   1.258       .  A
O301       Cr310   1.963       .  S
O301        C309   1.257       .  A
O302       Cr310   2.023       .  S
O302        C303   1.268       .  A
C303        C318   1.464       .  S
C303        O304   1.257       .  A
O304       Cr311   1.962       .  S
O305       Cr311   2.024       .  S
O305        C306   1.268       .  A
C306        O307   1.257       .  A
O307       Cr312   1.960       .  S
O308       Cr312   2.024       .  S
O308        C309   1.268       .  A
Cr310       O313   1.765       .  S
Cr311       O313   1.765       .  S
Cr312       O313   1.765       .  S
C314        C324   1.485       .  S
C314        C403   1.410       .  A
C314        C319   1.410       .  A
C315        C490   1.410       .  A
C315        C316   1.401       .  A
C315        H320   1.084       .  S
C316        C493   1.398       .  A
C317        C404   1.398       .  A
C317        C318   1.398       .  A
C317        H321   1.085       .  S
C318        C319   1.400       .  A
C319        H322   1.084       .  S
C323        C500   1.405       .  A
C323        C328   1.399       .  A
C323        H330   1.083       .  S
C324        C411   1.405       .  A
C324        C325   1.411       .  A
C325        C326   1.398       .  A
C325       Br332   1.921       .  S
C326        C327   1.406       .  A
C326        H331   1.083       .  S
C327        C357   1.487       .  S
C327        C416   1.413       .  A
C328        C503   1.413       .  A
C333        C334   1.407       .  A
C333        C338   1.399       .  A
C333        H868   1.083       .  S
C334        C355   1.490       .  S
C334        C423   1.416       .  A
C335        C510   1.416   1_554  A
C335        C336   1.398       .  A
C335       Br342   1.922       .  S
C336        C513   1.402   1_554  A
C336        H341   1.083       .  S
C337        C424   1.402       .  A
C337        C338   1.409       .  A
C338       Br867   1.920       .  S
Br339       C866   1.920       .  S
H340        C861   1.083   1_455  S
C343        C520   1.406   1_554  A
C343        C348   1.398       .  A
C344        C431   1.406       .  A
C344        C345   1.414       .  A
C345        C346   1.399       .  A
C345       Br880   1.921       .  S
C346        C347   1.403       .  A
C346        H351   1.084       .  S
C347        C436   1.409       .  A
C348        C523   1.409   1_554  A
Br352       C873   1.921   1_455  S
C353        C432   1.487       .  S
C353        C886   1.404       .  A
C354        C443   1.404       .  A
C354        H359   1.083       .  S
C355        C884   1.405       .  A
C356        C883   1.405   1_455  A
C356        H360   1.082       .  S
C358        C881   1.404   1_455  A
C358        C445   1.404       .  A
C358        H361   1.083       .  S
C362        C425   1.482       .  S
C362        C363   1.408       .  A
C362        C455   1.409       .  A
C363        C364   1.400       .  A
C363        H368   1.084       .  S
C364        C397   1.464       .  S
C364        C365   1.397       .  A
C365        C454   1.399       .  A
C365        H369   1.085       .  S
C366        C388   1.468       .  S
C366        C367   1.402       .  A
C367        H370   1.084       .  S
C371        C435   1.481       .  S
C371        C460   1.409       .  A
C371        C376   1.408       .  A
C372        C373   1.401       .  A
C372        H377   1.084       .  S
C373        C385   1.469       .  S
C374        C461   1.399       .  A
C374        C375   1.397       .  A
C374        H378   1.085       .  S
C375        C394   1.463       .  S
C375        C376   1.399       .  A
C376        H379   1.084       .  S
O380       Cr398   2.021       .  S
O380        C388   1.267       .  A
O381       Cr398   1.968       .  S
O381        C382   1.258       .  A
C382        C404   1.468       .  S
C382        O383   1.268       .  A
O383       Cr399   2.022       .  S
O384       Cr399   1.966       .  S
O384        C385   1.258       .  A
C385        O386   1.268       .  A
O386       Cr400   2.022       .  S
O387       Cr400   1.966       .  S
O387        C388   1.258       .  A
O389       Cr398   1.963       .  S
O389        C397   1.257       .  A
O390       Cr398   2.023       .  S
O390        C391   1.268       .  A
C391        C406   1.464       .  S
C391        O392   1.257       .  A
O392       Cr399   1.962       .  S
O393       Cr399   2.024       .  S
O393        C394   1.268       .  A
C394        O395   1.257       .  A
O395       Cr400   1.960       .  S
O396       Cr400   2.024       .  S
O396        C397   1.268       .  A
Cr398       O401   1.765       .  S
Cr399       O401   1.765       .  S
Cr400       O401   1.765       .  S
C402        C412   1.485       .  S
C402        C491   1.410       .  A
C402        C407   1.410       .  A
C403        C404   1.401       .  A
C403        H408   1.084       .  S
C405        C492   1.398       .  A
C405        C406   1.398       .  A
C405        H409   1.085       .  S
C406        C407   1.400       .  A
C407        H410   1.084       .  S
C411        C416   1.399       .  A
C411        H418   1.083       .  S
C412        C499   1.405       .  A
C412        C413   1.411       .  A
C413        C414   1.398       .  A
C413       Br420   1.921       .  S
C414        C415   1.406       .  A
C414        H419   1.083       .  S
C415        C445   1.487       .  S
C415        C504   1.413       .  A
C421        C422   1.407       .  A
C421        C426   1.399       .  A
C421        H956   1.083       .  S
C422        C443   1.490       .  S
C422        C511   1.416       .  A
C423        C424   1.398       .  A
C423       Br430   1.922       .  S
C424        H429   1.083       .  S
C425        C512   1.402       .  A
C425        C426   1.409       .  A
C426       Br955   1.920       .  S
Br427       C954   1.920       .  S
H428        C949   1.083   1_455  S
C431        C436   1.398       .  A
C432        C519   1.406       .  A
C432        C433   1.414       .  A
C433        C434   1.399       .  A
C433       Br968   1.921       .  S
C434        C435   1.403       .  A
C434        H439   1.084       .  S
C435        C524   1.409       .  A
Br440       C961   1.921   1_455  S
C441        C520   1.487       .  S
C441        C974   1.404   1_556  A
C442        H447   1.083       .  S
C443        C972   1.405       .  A
C444        C971   1.405   1_455  A
C444        H448   1.082       .  S
C446        C969   1.404   1_454  A
C446        H449   1.083       .  S
C450        C513   1.482       .  S
C450        C451   1.408       .  A
C451        C452   1.400       .  A
C451        H456   1.084       .  S
C452        C485   1.464       .  S
C452        C453   1.397       .  A
C453        H457   1.085       .  S
C454        C476   1.468       .  S
C454        C455   1.402       .  A
C455        H458   1.084       .  S
C459        C523   1.481       .  S
C459        C464   1.408       .  A
C460        C461   1.401       .  A
C460        H465   1.084       .  S
C461        C473   1.469       .  S
C462        C463   1.397       .  A
C462        H466   1.085       .  S
C463        C482   1.463       .  S
C463        C464   1.399       .  A
C464        H467   1.084       .  S
O468       Cr486   2.021       .  S
O468        C476   1.267       .  A
O469       Cr486   1.968       .  S
O469        C470   1.258       .  A
C470        C492   1.468       .  S
C470        O471   1.268       .  A
O471       Cr487   2.022       .  S
O472       Cr487   1.966       .  S
O472        C473   1.258       .  A
C473        O474   1.268       .  A
O474       Cr488   2.022       .  S
O475       Cr488   1.966       .  S
O475        C476   1.258       .  A
O477       Cr486   1.963       .  S
O477        C485   1.257       .  A
O478       Cr486   2.023       .  S
O478        C479   1.268       .  A
C479        C494   1.464       .  S
C479        O480   1.257       .  A
O480       Cr487   1.962       .  S
O481       Cr487   2.024       .  S
O481        C482   1.268       .  A
C482        O483   1.257       .  A
O483       Cr488   1.960       .  S
O484       Cr488   2.024       .  S
O484        C485   1.268       .  A
Cr486       O489   1.765       .  S
Cr487       O489   1.765       .  S
Cr488       O489   1.765       .  S
C490        C500   1.485       .  S
C490        C495   1.410   1_554  A
C491        C492   1.401       .  A
C491        H496   1.084       .  S
C493        C494   1.398   1_554  A
C493        H497   1.085   1_554  S
C494        C495   1.400       .  A
C495        H498   1.084       .  S
C499        C504   1.399       .  A
C499        H506   1.083       .  S
C500        C501   1.411   1_554  A
C501        C502   1.398       .  A
C501       Br508   1.921       .  S
C502        C503   1.406   1_556  A
C502        H507   1.083       .  S
C509        C510   1.407       .  A
C509        C514   1.399       .  A
C509       H1044   1.083       .  S
C511        C512   1.398       .  A
C511       Br518   1.922       .  S
C512        H517   1.083       .  S
C513        C514   1.409       .  A
C514      Br1043   1.920       .  S
Br515      C1042   1.920       .  S
H516       C1037   1.083   1_455  S
C519        C524   1.398       .  A
C520        C521   1.414       .  A
C521        C522   1.399       .  A
C521      Br1056   1.921       .  S
C522        C523   1.403       .  A
C522        H527   1.084       .  S
Br528      C1049   1.921   1_455  S
C529        C608   1.487       .  S
C529        C794   1.405   1_545  A
C530        C793   1.405       .  A
C530        C619   1.404       .  A
C530        H535   1.083       .  S
C531        C774   1.490       .  S
C531        C706   1.404       .  A
C532        C797   1.404       .  A
C532        H536   1.082       .  S
C533        C767   1.487       .  S
C533        C796   1.404   1_545  A
C533        C710   1.404       .  A
C534        C621   1.404       .  A
C534        H537   1.083       .  S
C538        C601   1.482       .  S
C538        C539   1.408       .  A
C538        C631   1.409       .  A
C539        C540   1.400       .  A
C539        H544   1.084       .  S
C540        C573   1.464       .  S
C540        C541   1.397       .  A
C541        C630   1.399       .  A
C541        H545   1.085       .  S
C542        C564   1.468       .  S
C542        C717   1.399   1_554  A
C542        C543   1.402       .  A
C543        C714   1.409   1_554  A
C543        H546   1.084       .  S
C547        C611   1.481       .  S
C547        C636   1.409       .  A
C547        C552   1.408       .  A
C548        C723   1.409   1_554  A
C548        C549   1.401       .  A
C548        H553   1.084       .  S
C549        C561   1.469       .  S
C549        C726   1.399   1_554  A
C550        C637   1.399       .  A
C550        C551   1.397       .  A
C550        H554   1.085       .  S
C551        C570   1.463       .  S
C551        C552   1.399       .  A
C552        H555   1.084       .  S
O556       Cr574   2.021       .  S
O556        C564   1.267       .  A
O557       Cr574   1.968       .  S
O557        C558   1.258       .  A
C558        C580   1.468       .  S
C558        O559   1.268       .  A
O559       Cr575   2.022       .  S
O560       Cr575   1.966       .  S
O560        C561   1.258       .  A
C561        O562   1.268       .  A
O562       Cr576   2.022       .  S
O563       Cr576   1.966       .  S
O563        C564   1.258       .  A
O565       Cr574   1.963       .  S
O565        C573   1.257       .  A
O566       Cr574   2.023       .  S
O566        C567   1.268       .  A
C567        C582   1.464       .  S
C567        O568   1.257       .  A
O568       Cr575   1.962       .  S
O569       Cr575   2.024       .  S
O569        C570   1.268       .  A
C570        O571   1.257       .  A
O571       Cr576   1.960       .  S
O572       Cr576   2.024       .  S
O572        C573   1.268       .  A
Cr574       O577   1.765       .  S
Cr575       O577   1.765       .  S
Cr576       O577   1.765       .  S
C578        C588   1.485       .  S
C578        C667   1.410       .  A
C578        C583   1.410       .  A
C579        C754   1.410       .  A
C579        C580   1.401       .  A
C579        H584   1.084       .  S
C580        C757   1.398       .  A
C581        C668   1.398       .  A
C581        C582   1.398       .  A
C581        H585   1.085       .  S
C582        C583   1.400       .  A
C583        H586   1.084       .  S
C587        C764   1.405       .  A
C587        C592   1.399       .  A
C587        H594   1.083       .  S
C588        C675   1.405       .  A
C588        C589   1.411       .  A
C589        C590   1.398       .  A
C589       Br596   1.921       .  S
C590        C591   1.406       .  A
C590        H595   1.083       .  S
C591        C621   1.487       .  S
C591        C680   1.413       .  A
C592        C767   1.413       .  A
C592       Br857   1.921   1_545  S
Br593       C856   1.921       .  S
C597        C598   1.407       .  A
C597        C602   1.399       .  A
C598        C619   1.490       .  S
C598        C687   1.416       .  A
C599        C774   1.416   1_554  A
C599        C600   1.398       .  A
C599       Br606   1.922       .  S
C600        C777   1.402   1_554  A
C600        H605   1.083       .  S
C601        C688   1.402       .  A
C601        C602   1.409       .  A
C607        C784   1.406   1_554  A
C607        C612   1.398       .  A
C607        H878   1.083   1_545  S
C608        C695   1.406       .  A
C608        C609   1.414       .  A
C609        C610   1.399       .  A
C610        C611   1.403       .  A
C610        H615   1.084       .  S
C611        C700   1.409       .  A
C612        C787   1.409   1_554  A
C612       Br877   1.920       .  S
Br613       C876   1.920       .  S
H614        C871   1.083       .  S
C617        C696   1.487       .  S
C617        C882   1.405   1_545  A
C618        C881   1.405       .  A
C618        C707   1.404       .  A
C618        H623   1.083       .  S
C620        C885   1.404       .  A
C620        H624   1.082       .  S
C621        C884   1.404   1_545  A
C622        C709   1.404       .  A
C622        H625   1.083       .  S
C626        C689   1.482       .  S
C626        C627   1.408       .  A
C626        C719   1.409       .  A
C627        C628   1.400       .  A
C627        H632   1.084       .  S
C628        C661   1.464       .  S
C628        C629   1.397       .  A
C629        C718   1.399       .  A
C629        H633   1.085       .  S
C630        C652   1.468       .  S
C630        C631   1.402       .  A
C631        H634   1.084       .  S
C635        C699   1.481       .  S
C635        C724   1.409       .  A
C635        C640   1.408       .  A
C636        C637   1.401       .  A
C636        H641   1.084       .  S
C637        C649   1.469       .  S
C638        C725   1.399       .  A
C638        C639   1.397       .  A
C638        H642   1.085       .  S
C639        C658   1.463       .  S
C639        C640   1.399       .  A
C640        H643   1.084       .  S
O644       Cr662   2.021       .  S
O644        C652   1.267       .  A
O645       Cr662   1.968       .  S
O645        C646   1.258       .  A
C646        C668   1.468       .  S
C646        O647   1.268       .  A
O647       Cr663   2.022       .  S
O648       Cr663   1.966       .  S
O648        C649   1.258       .  A
C649        O650   1.268       .  A
O650       Cr664   2.022       .  S
O651       Cr664   1.966       .  S
O651        C652   1.258       .  A
O653       Cr662   1.963       .  S
O653        C661   1.257       .  A
O654       Cr662   2.023       .  S
O654        C655   1.268       .  A
C655        C670   1.464       .  S
C655        O656   1.257       .  A
O656       Cr663   1.962       .  S
O657       Cr663   2.024       .  S
O657        C658   1.268       .  A
C658        O659   1.257       .  A
O659       Cr664   1.960       .  S
O660       Cr664   2.024       .  S
O660        C661   1.268       .  A
Cr662       O665   1.765       .  S
Cr663       O665   1.765       .  S
Cr664       O665   1.765       .  S
C666        C676   1.485       .  S
C666        C755   1.410       .  A
C666        C671   1.410       .  A
C667        C668   1.401       .  A
C667        H672   1.084       .  S
C669        C756   1.398       .  A
C669        C670   1.398       .  A
C669        H673   1.085       .  S
C670        C671   1.400       .  A
C671        H674   1.084       .  S
C675        C680   1.399       .  A
C675        H682   1.083       .  S
C676        C763   1.405       .  A
C676        C677   1.411       .  A
C677        C678   1.398       .  A
C677       Br684   1.921       .  S
C678        C679   1.406       .  A
C678        H683   1.083       .  S
C679        C709   1.487       .  S
C679        C768   1.413       .  A
C680       Br945   1.921   1_545  S
Br681       C944   1.921       .  S
C685        C686   1.407       .  A
C685        C690   1.399       .  A
C686        C707   1.490       .  S
C686        C775   1.416       .  A
C687        C688   1.398       .  A
C687       Br694   1.922       .  S
C688        H693   1.083       .  S
C689        C776   1.402       .  A
C689        C690   1.409       .  A
C695        C700   1.398       .  A
C695        H966   1.083   1_545  S
C696        C783   1.406       .  A
C696        C697   1.414       .  A
C697        C698   1.399       .  A
C698        C699   1.403       .  A
C698        H703   1.084       .  S
C699        C788   1.409       .  A
C700       Br965   1.920       .  S
Br701       C964   1.920       .  S
H702        C959   1.083       .  S
C705        C784   1.487       .  S
C705        C970   1.405   1_545  A
C706        C969   1.405       .  A
C706        H711   1.083       .  S
C708        C973   1.404       .  A
C708        H712   1.082       .  S
C709        C972   1.404   1_545  A
C710        H713   1.083       .  S
C714        C777   1.482       .  S
C714        C715   1.408       .  A
C715        C716   1.400       .  A
C715        H720   1.084       .  S
C716        C749   1.464       .  S
C716        C717   1.397       .  A
C717        H721   1.085       .  S
C718        C740   1.468       .  S
C718        C719   1.402       .  A
C719        H722   1.084       .  S
C723        C787   1.481       .  S
C723        C728   1.408       .  A
C724        C725   1.401       .  A
C724        H729   1.084       .  S
C725        C737   1.469       .  S
C726        C727   1.397       .  A
C726        H730   1.085       .  S
C727        C746   1.463       .  S
C727        C728   1.399       .  A
C728        H731   1.084       .  S
O732       Cr750   2.021       .  S
O732        C740   1.267       .  A
O733       Cr750   1.968       .  S
O733        C734   1.258       .  A
C734        C756   1.468       .  S
C734        O735   1.268       .  A
O735       Cr751   2.022       .  S
O736       Cr751   1.966       .  S
O736        C737   1.258       .  A
C737        O738   1.268       .  A
O738       Cr752   2.022       .  S
O739       Cr752   1.966       .  S
O739        C740   1.258       .  A
O741       Cr750   1.963       .  S
O741        C749   1.257       .  A
O742       Cr750   2.023       .  S
O742        C743   1.268       .  A
C743        C758   1.464       .  S
C743        O744   1.257       .  A
O744       Cr751   1.962       .  S
O745       Cr751   2.024       .  S
O745        C746   1.268       .  A
C746        O747   1.257       .  A
O747       Cr752   1.960       .  S
O748       Cr752   2.024       .  S
O748        C749   1.268       .  A
Cr750       O753   1.765       .  S
Cr751       O753   1.765       .  S
Cr752       O753   1.765       .  S
C754        C764   1.485       .  S
C754        C759   1.410   1_554  A
C755        C756   1.401       .  A
C755        H760   1.084       .  S
C757        C758   1.398   1_554  A
C757        H761   1.085   1_554  S
C758        C759   1.400       .  A
C759        H762   1.084       .  S
C763        C768   1.399       .  A
C763        H770   1.083       .  S
C764        C765   1.411   1_554  A
C765        C766   1.398       .  A
C765       Br772   1.921       .  S
C766        C767   1.406   1_556  A
C766        H771   1.083       .  S
C768      Br1033   1.921   1_545  S
Br769      C1032   1.921       .  S
C773        C774   1.407       .  A
C773        C778   1.399       .  A
C775        C776   1.398       .  A
C775       Br782   1.922       .  S
C776        H781   1.083       .  S
C777        C778   1.409       .  A
C783        C788   1.398       .  A
C783       H1054   1.083   1_545  S
C784        C785   1.414       .  A
C785        C786   1.399       .  A
C786        C787   1.403       .  A
C786        H791   1.084       .  S
C788      Br1053   1.920       .  S
Br789      C1052   1.920       .  S
H790       C1047   1.083       .  S
C793        C872   1.487       .  S
C794        C883   1.404       .  A
C794        H799   1.083       .  S
C795       C1038   1.490       .  S
C795        C970   1.404       .  A
C796        H800   1.082       .  S
C797       C1031   1.487       .  S
C797        C974   1.404       .  A
C798        C885   1.404       .  A
C798        H801   1.083       .  S
C802        C865   1.482       .  S
C802        C803   1.408       .  A
C802        C895   1.409       .  A
C803        C804   1.400       .  A
C803        H808   1.084       .  S
C804        C837   1.464       .  S
C804        C805   1.397       .  A
C805        C894   1.399       .  A
C805        H809   1.085       .  S
C806        C828   1.468       .  S
C806        C981   1.399   1_554  A
C806        C807   1.402       .  A
C807        C978   1.409   1_554  A
C807        H810   1.084       .  S
C811        C875   1.481       .  S
C811        C900   1.409       .  A
C811        C816   1.408       .  A
C812        C987   1.409   1_554  A
C812        C813   1.401       .  A
C812        H817   1.084       .  S
C813        C825   1.469       .  S
C813        C990   1.399   1_554  A
C814        C901   1.399       .  A
C814        C815   1.397       .  A
C814        H818   1.085       .  S
C815        C834   1.463       .  S
C815        C816   1.399       .  A
C816        H819   1.084       .  S
O820       Cr838   2.021       .  S
O820        C828   1.267       .  A
O821       Cr838   1.968       .  S
O821        C822   1.258       .  A
C822        C844   1.468       .  S
C822        O823   1.268       .  A
O823       Cr839   2.022       .  S
O824       Cr839   1.966       .  S
O824        C825   1.258       .  A
C825        O826   1.268       .  A
O826       Cr840   2.022       .  S
O827       Cr840   1.966       .  S
O827        C828   1.258       .  A
O829       Cr838   1.963       .  S
O829        C837   1.257       .  A
O830       Cr838   2.023       .  S
O830        C831   1.268       .  A
C831        C846   1.464       .  S
C831        O832   1.257       .  A
O832       Cr839   1.962       .  S
O833       Cr839   2.024       .  S
O833        C834   1.268       .  A
C834        O835   1.257       .  A
O835       Cr840   1.960       .  S
O836       Cr840   2.024       .  S
O836        C837   1.268       .  A
Cr838       O841   1.765       .  S
Cr839       O841   1.765       .  S
Cr840       O841   1.765       .  S
C842        C852   1.485       .  S
C842        C931   1.410       .  A
C842        C847   1.410       .  A
C843       C1018   1.410       .  A
C843        C844   1.401       .  A
C843        H848   1.084       .  S
C844       C1021   1.398       .  A
C845        C932   1.398       .  A
C845        C846   1.398       .  A
C845        H849   1.085       .  S
C846        C847   1.400       .  A
C847        H850   1.084       .  S
C851       C1028   1.405       .  A
C851        C856   1.399       .  A
C851        H858   1.083       .  S
C852        C939   1.405       .  A
C852        C853   1.411       .  A
C853        C854   1.398       .  A
C853       Br860   1.921       .  S
C854        C855   1.406       .  A
C854        H859   1.083       .  S
C855        C885   1.487       .  S
C855        C944   1.413       .  A
C856       C1031   1.413       .  A
C861        C862   1.407       .  A
C861        C866   1.399       .  A
C862        C883   1.490       .  S
C862        C951   1.416       .  A
C863       C1038   1.416   1_554  A
C863        C864   1.398       .  A
C863       Br870   1.922       .  S
C864       C1041   1.402   1_554  A
C864        H869   1.083       .  S
C865        C952   1.402       .  A
C865        C866   1.409       .  A
C871       C1048   1.406   1_554  A
C871        C876   1.398       .  A
C872        C959   1.406       .  A
C872        C873   1.414       .  A
C873        C874   1.399       .  A
C874        C875   1.403       .  A
C874        H879   1.084       .  S
C875        C964   1.409       .  A
C876       C1051   1.409   1_554  A
C881        C960   1.487       .  S
C882        C971   1.404       .  A
C882        H887   1.083       .  S
C884        H888   1.082       .  S
C886        C973   1.404       .  A
C886        H889   1.083       .  S
C890        C953   1.482       .  S
C890        C891   1.408       .  A
C890        C983   1.409       .  A
C891        C892   1.400       .  A
C891        H896   1.084       .  S
C892        C925   1.464       .  S
C892        C893   1.397       .  A
C893        C982   1.399       .  A
C893        H897   1.085       .  S
C894        C916   1.468       .  S
C894        C895   1.402       .  A
C895        H898   1.084       .  S
C899        C963   1.481       .  S
C899        C988   1.409       .  A
C899        C904   1.408       .  A
C900        C901   1.401       .  A
C900        H905   1.084       .  S
C901        C913   1.469       .  S
C902        C989   1.399       .  A
C902        C903   1.397       .  A
C902        H906   1.085       .  S
C903        C922   1.463       .  S
C903        C904   1.399       .  A
C904        H907   1.084       .  S
O908       Cr926   2.021       .  S
O908        C916   1.267       .  A
O909       Cr926   1.968       .  S
O909        C910   1.258       .  A
C910        C932   1.468       .  S
C910        O911   1.268       .  A
O911       Cr927   2.022       .  S
O912       Cr927   1.966       .  S
O912        C913   1.258       .  A
C913        O914   1.268       .  A
O914       Cr928   2.022       .  S
O915       Cr928   1.966       .  S
O915        C916   1.258       .  A
O917       Cr926   1.963       .  S
O917        C925   1.257       .  A
O918       Cr926   2.023       .  S
O918        C919   1.268       .  A
C919        C934   1.464       .  S
C919        O920   1.257       .  A
O920       Cr927   1.962       .  S
O921       Cr927   2.024       .  S
O921        C922   1.268       .  A
C922        O923   1.257       .  A
O923       Cr928   1.960       .  S
O924       Cr928   2.024       .  S
O924        C925   1.268       .  A
Cr926       O929   1.765       .  S
Cr927       O929   1.765       .  S
Cr928       O929   1.765       .  S
C930        C940   1.485       .  S
C930       C1019   1.410       .  A
C930        C935   1.410       .  A
C931        C932   1.401       .  A
C931        H936   1.084       .  S
C933       C1020   1.398       .  A
C933        C934   1.398       .  A
C933        H937   1.085       .  S
C934        C935   1.400       .  A
C935        H938   1.084       .  S
C939        C944   1.399       .  A
C939        H946   1.083       .  S
C940       C1027   1.405       .  A
C940        C941   1.411       .  A
C941        C942   1.398       .  A
C941       Br948   1.921       .  S
C942        C943   1.406       .  A
C942        H947   1.083       .  S
C943        C973   1.487       .  S
C943       C1032   1.413       .  A
C949        C950   1.407       .  A
C949        C954   1.399       .  A
C950        C971   1.490       .  S
C950       C1039   1.416       .  A
C951        C952   1.398       .  A
C951       Br958   1.922       .  S
C952        H957   1.083       .  S
C953       C1040   1.402       .  A
C953        C954   1.409       .  A
C959        C964   1.398       .  A
C960       C1047   1.406       .  A
C960        C961   1.414       .  A
C961        C962   1.399       .  A
C962        C963   1.403       .  A
C962        H967   1.084       .  S
C963       C1052   1.409       .  A
C969       C1048   1.487       .  S
C970        H975   1.083       .  S
C972        H976   1.082       .  S
C974        H977   1.083       .  S
C978       C1041   1.482       .  S
C978        C979   1.408       .  A
C979        C980   1.400       .  A
C979        H984   1.084       .  S
C980       C1013   1.464       .  S
C980        C981   1.397       .  A
C981        H985   1.085       .  S
C982       C1004   1.468       .  S
C982        C983   1.402       .  A
C983        H986   1.084       .  S
C987       C1051   1.481       .  S
C987        C992   1.408       .  A
C988        C989   1.401       .  A
C988        H993   1.084       .  S
C989       C1001   1.469       .  S
C990        C991   1.397       .  A
C990        H994   1.085       .  S
C991       C1010   1.463       .  S
C991        C992   1.399       .  A
C992        H995   1.084       .  S
O996      Cr1014   2.021       .  S
O996       C1004   1.267       .  A
O997      Cr1014   1.968       .  S
O997        C998   1.258       .  A
C998       C1020   1.468       .  S
C998        O999   1.268       .  A
O999      Cr1015   2.022       .  S
O1000     Cr1015   1.966       .  S
O1000      C1001   1.258       .  A
C1001      O1002   1.268       .  A
O1002     Cr1016   2.022       .  S
O1003     Cr1016   1.966       .  S
O1003      C1004   1.258       .  A
O1005     Cr1014   1.963       .  S
O1005      C1013   1.257       .  A
O1006     Cr1014   2.023       .  S
O1006      C1007   1.268       .  A
C1007      C1022   1.464       .  S
C1007      O1008   1.257       .  A
O1008     Cr1015   1.962       .  S
O1009     Cr1015   2.024       .  S
O1009      C1010   1.268       .  A
C1010      O1011   1.257       .  A
O1011     Cr1016   1.960       .  S
O1012     Cr1016   2.024       .  S
O1012      C1013   1.268       .  A
Cr1014     O1017   1.765       .  S
Cr1015     O1017   1.765       .  S
Cr1016     O1017   1.765       .  S
C1018      C1028   1.485       .  S
C1018      C1023   1.410   1_554  A
C1019      C1020   1.401       .  A
C1019      H1024   1.084       .  S
C1021      C1022   1.398   1_554  A
C1021      H1025   1.085   1_554  S
C1022      C1023   1.400       .  A
C1023      H1026   1.084       .  S
C1027      C1032   1.399       .  A
C1027      H1034   1.083       .  S
C1028      C1029   1.411   1_554  A
C1029      C1030   1.398       .  A
C1029     Br1036   1.921       .  S
C1030      C1031   1.406   1_556  A
C1030      H1035   1.083       .  S
C1037      C1038   1.407       .  A
C1037      C1042   1.399       .  A
C1039      C1040   1.398       .  A
C1039     Br1046   1.922       .  S
C1040      H1045   1.083       .  S
C1041      C1042   1.409       .  A
C1047      C1052   1.398       .  A
C1048      C1049   1.414       .  A
C1049      C1050   1.399       .  A
C1050      C1051   1.403       .  A
C1050      H1055   1.084       .  S
