geometry optimzed in LAMMPS
_audit_creation_date              2020-12-01 
_audit_creation_method            'lammps2cif' 
_symmetry_space_group_name_H-M    'P1' 
_symmetry_Int_Tables_number       1 
_symmetry_cell_setting            triclinic 
loop_ 
_symmetry_equiv_pos_as_xyz 
  x,y,z 
_cell_length_a                    41.87959462 
_cell_length_b                    19.405005209634385 
_cell_length_c                    41.263782714765455 
_cell_angle_alpha                 88.01326489966077 
_cell_angle_beta                  80.79599627413474 
_cell_angle_gamma                 85.08859004556317 
loop_ 
_atom_site_label 
_atom_site_type_symbol 
_atom_site_fract_x 
_atom_site_fract_y 
_atom_site_fract_z 
_atom_site_charge 
O1          O  0.47813487  0.01370384  0.08003773    -0.81300
O2          O  0.47573627  0.50300946  0.43560483    -0.66000
O3          O  0.49686711  0.45292474  0.01981350    -1.12600
C4          C  0.07912358  0.10298719  0.99244341     1.05600
O5          O  0.02761636  0.48390890  0.41380229    -0.79200
O6          O  0.07220290  0.44958183  0.45414298    -0.66800
Ni7        Ni  0.46360462  0.44288695  0.05620144     1.34900
C8          C  0.08035525  0.43688776  0.48220291     0.84400
O9          O  0.45062003  0.41528858  0.48230807    -0.79700
O10         O  0.44687795  0.37223853  0.03376935    -0.90000
C11         C  0.49774869  0.49425635  0.41086887     0.83900
O12         O  0.43061470  0.00536925  0.04311189    -0.68200
O13         O  0.07839830  0.08381556  0.46335080    -0.87500
C14         C  0.42846645  0.04339500  0.01780481     0.84800
C15         C  0.43652217  0.37982420  0.50619252     1.06300
H16         H  0.00698702  0.08796364  0.47549778     0.38100
O17         O  0.01715502  0.04145055  0.47628768    -1.10100
O18         O  0.06338642  0.45914752  0.00877005    -0.66800
Ni19       Ni  0.02617846  0.02359263  0.01970193     1.26300
O20         O  0.45225063  0.04834155  0.49476583    -0.67000
O21         O  0.05669654  0.09310092  0.01675895    -0.79300
C22         C  0.00638970  0.01080502  0.08715101     0.84100
O23         O  0.03110129  0.00606460  0.06480749    -0.66500
Ni24       Ni  0.05147825  0.03431008  0.44030438     1.27400
Ni25       Ni  0.48465434  0.47721066  0.47840106     1.26100
H26         H  0.50945313  0.40871892  0.01749944     0.38700
O27         O  0.21584856  0.19200384  0.02510178    -0.74800
O28         O  0.28406698  0.30935798  0.02814078    -0.74800
O29         O  0.21849866  0.32699033  0.02439796    -0.74900
O30         O  0.28140097  0.17405208  0.02879008    -0.74900
O31         O  0.29298550  0.17501066  0.47421327    -0.74900
O32         O  0.23037270  0.32821361  0.46967176    -0.74900
O33         O  0.29600192  0.30988445  0.47369722    -0.74800
O34         O  0.22751379  0.19285540  0.47058948    -0.74900
Ni35       Ni  0.24957926  0.25064275  0.02855992     1.25400
Ni36       Ni  0.26211930  0.25156885  0.47008249     1.25400
C37         C  0.20837640  0.17978340  0.49714090     0.87400
C38         C  0.30346644  0.32222194  0.50176776     0.87300
C39         C  0.21159609  0.34654112  0.49608471     0.87300
C40         C  0.29962463  0.15459000  0.50236989     0.87500
C41         C  0.48516312  0.43882405  0.32952404     0.79800
N42         N  0.48833331  0.43665680  0.36182330    -0.78500
C43         C  0.48942964  0.49656532  0.37785516     0.82300
N44         N  0.48793249  0.05898856  0.36137594    -0.78400
C45         C  0.48494181  0.06192165  0.32914096     0.82400
N46         N  0.48409852  0.50153414  0.31373200    -0.80100
C47         C  0.00537929  0.06961092  0.17144760     0.79800
N48         N  0.00450786  0.00735038  0.18776808    -0.78500
C49         C  0.00534183  0.44675512  0.17195163     0.82300
N50         N  0.00771568  0.44892766  0.13879751    -0.78400
C51         C  0.00965276  0.00997387  0.12183804     0.82400
N52         N  0.00765782  0.07062889  0.13817773    -0.80100
N53         N  0.49708959  0.14978229  0.25033831    -0.37000
N54         N  0.48622984  0.25205423  0.30307635    -0.57600
N55         N  0.49688511  0.35802126  0.25080319    -0.37000
N56         N  0.00006064  0.25721832  0.19810741    -0.57600
C57         C  0.47804824  0.12598176  0.27723755     0.26600
C58         C  0.98537385  0.12831879  0.22410573     0.26600
C59         C  0.47785062  0.38479194  0.27773438     0.26600
C60         C  0.98520959  0.38773337  0.22460284     0.26600
C61         C  0.49136332  0.19343551  0.32058895     0.35200
C62         C  0.49128512  0.30593006  0.32084232     0.35200
C63         C  0.00917199  0.20079809  0.17964848     0.35200
C64         C  0.00917550  0.31329032  0.17993315     0.35200
C65         C  0.45301016  0.09294947  0.26816703    -0.22300
C66         C  0.95767822  0.09464143  0.23439987    -0.22300
C67         C  0.45272313  0.42821869  0.26870482    -0.22300
C68         C  0.45734722  0.43019451  0.23490494    -0.22300
C69         C  0.50030105  0.20984740  0.35021168    -0.23300
C70         C  0.50023580  0.28150114  0.35036743    -0.23300
C71         C  0.02470824  0.22078361  0.14894885    -0.23300
C72         C  0.02472390  0.29255927  0.14912451    -0.23300
C73         C  0.48489358  0.12858744  0.30945250    -0.18700
C74         C  0.00064405  0.13433998  0.19130475    -0.18700
C75         C  0.00061229  0.38103679  0.19184651    -0.18700
C76         C  0.48481655  0.37490963  0.30992853    -0.18700
H77         H  0.43333125  0.07130984  0.28440497     0.14200
H78         H  0.94222357  0.07466166  0.21895725     0.14200
H79         H  0.43302915  0.45462877  0.28497323     0.14200
H80         H  0.94200266  0.45795805  0.21943289     0.14200
H81         H  0.50592922  0.17511300  0.36990154     0.12500
H82         H  0.50574606  0.31109792  0.37017165     0.12500
H83         H  0.03462335  0.18794545  0.12852300     0.12500
H84         H  0.03469095  0.32498631  0.12882312     0.12500
H85         H  0.51845462  0.17423833  0.24984663     0.25800
H86         H  0.51829881  0.32588879  0.25027153     0.25800
C87         C  0.35858310  0.14367511  0.98355211    -0.09500
C88         C  0.33173645  0.11890839  0.00416349     0.06700
C89         C  0.33698496  0.07155431  0.52973416    -0.03300
C90         C  0.36865792  0.05050454  0.53440634    -0.07800
C91         C  0.39580861  0.07567573  0.01394027     0.05800
C92         C  0.39035040  0.12271077  0.98807098    -0.02800
Br93       Br  0.42446580  0.16218128  0.95826024    -0.02500
H94         H  0.35485853  0.18203748  0.96450614     0.09700
H95         H  0.37187683  0.01258906  0.55374436     0.07700
Br96       Br  0.30189111  0.03149805  0.55765939    -0.02900
C97         C  0.15280326  0.34951790  0.51522319    -0.09500
C98         C  0.17851958  0.37701876  0.49387002     0.06700
C99         C  0.17141668  0.41987606  0.46732080    -0.03300
C100        C  0.13916460  0.43424175  0.46257197    -0.07800
C101        C  0.11350703  0.40664309  0.48396276     0.05800
C102        C  0.12062435  0.36379677  0.51045056    -0.02800
Br103      Br  0.08745704  0.32089641  0.53984399    -0.02500
H104        H  0.15779255  0.31390876  0.53494550     0.09700
H105        H  0.13402763  0.46981928  0.44288560     0.07700
Br106      Br  0.20457983  0.46275721  0.43791997    -0.02900
C107        C  0.15887451  0.12267261  0.02230194    -0.09500
C108        C  0.17543978  0.15869136  0.99551279     0.06700
C109        C  0.15823662  0.18320676  0.96997345    -0.03300
C110        C  0.12585812  0.16974828  0.97127724    -0.07800
C111        C  0.10962357  0.13155053  0.99736665     0.06200
C112        C  0.12646347  0.10831254  0.02329025    -0.02800
Br113      Br  0.10848263  0.55197369  0.05880831    -0.02500
H114        H  0.17135881  0.10468160  0.04244344     0.09700
H115        H  0.11346300  0.18752726  0.95102580     0.07700
Br116      Br  0.17629280  0.23805622  0.43301817    -0.02900
C117        C  0.35832335  0.35083578  0.47415735    -0.09500
C118        C  0.33680151  0.34186616  0.50363544     0.06700
C119        C  0.34953358  0.33992773  0.03354800    -0.03300
C120        C  0.38253706  0.34692735  0.03322046    -0.07800
C121        C  0.40398850  0.35652465  0.50377238     0.05800
C122        C  0.39138858  0.35783846  0.47388694    -0.02800
Br123      Br  0.41768101  0.36700850  0.43149857    -0.02500
H124        H  0.34960903  0.35083022  0.45082222     0.09700
H125        H  0.39116443  0.34740554  0.05658974     0.07700
Br126      Br  0.32426220  0.32722521  0.07627118    -0.02900
O127        O  0.47809721  0.01323716  0.58004095    -0.81300
O128        O  0.47576628  0.50287645  0.93559735    -0.66000
O129        O  0.49687398  0.45287009  0.51979415    -1.12600
C130        C  0.07916499  0.10287720  0.49253813     1.05600
O131        O  0.02760671  0.48343037  0.91390431    -0.79200
O132        O  0.07222938  0.44949458  0.95423085    -0.66800
Ni133      Ni  0.46362429  0.44287640  0.55619894     1.34900
C134        C  0.08035596  0.43691363  0.98230884     0.84400
O135        O  0.45063646  0.41519437  0.98231664    -0.79700
O136        O  0.44684006  0.37232560  0.53376253    -0.90000
C137        C  0.49781255  0.49400430  0.91090001     0.83900
O138        O  0.43061669  0.00495712  0.54304839    -0.68200
O139        O  0.07833908  0.08390018  0.96326300    -0.87500
C140        C  0.42846194  0.04314503  0.51779276     0.84800
C141        C  0.43654155  0.37974398  0.00620839     1.06300
H142        H  0.00695332  0.08784323  0.97545220     0.38100
O143        O  0.01712897  0.04134291  0.97627631    -1.10100
O144        O  0.06341235  0.45906919  0.50868992    -0.66800
Ni145      Ni  0.02620211  0.02350449  0.51970809     1.26300
O146        O  0.45224984  0.04844844  0.99475908    -0.67000
O147        O  0.05672392  0.09298384  0.51683723    -0.79300
C148        C  0.00641773  0.01047791  0.58715458     0.84100
O149        O  0.03112442  0.00579058  0.56480319    -0.66500
Ni150      Ni  0.05144429  0.03415029  0.94029229     1.27400
Ni151      Ni  0.48465975  0.47715372  0.97840635     1.26100
H152        H  0.50943820  0.40864023  0.51746264     0.38700
O153        O  0.21584437  0.19213111  0.52516371    -0.74800
O154        O  0.28403285  0.30958559  0.52810845    -0.74800
O155        O  0.21848481  0.32713630  0.52430677    -0.74900
O156        O  0.28138560  0.17426365  0.52889930    -0.74900
O157        O  0.29300845  0.17512307  0.97410211    -0.74900
O158        O  0.23032851  0.32827668  0.96975762    -0.74900
O159        O  0.29596782  0.31000556  0.97372349    -0.74800
O160        O  0.22751341  0.19291795  0.97052814    -0.74900
Ni161      Ni  0.24956052  0.25083142  0.52857164     1.25400
Ni162      Ni  0.26210389  0.25166377  0.97006775     1.25400
C163        C  0.20837339  0.17976919  0.99706765     0.87400
C164        C  0.30346083  0.32220286  0.00179843     0.87300
C165        C  0.21158027  0.34651288  0.99620220     0.87300
C166        C  0.29964982  0.15455159  0.00223767     0.87500
C167        C  0.48539968  0.43857940  0.82951155     0.79800
N168        N  0.48849178  0.43641839  0.86182816    -0.78500
C169        C  0.48956977  0.49632703  0.87786394     0.82300
N170        N  0.48802061  0.05874463  0.86141366    -0.78400
C171        C  0.48510981  0.06167336  0.82915737     0.82400
N172        N  0.48439340  0.50128240  0.81370831    -0.80100
C173        C  0.00550758  0.06925396  0.67144315     0.79800
N174        N  0.00459636  0.00700005  0.68776827    -0.78500
C175        C  0.00543636  0.44641020  0.67194481     0.82300
N176        N  0.00780591  0.44858729  0.63879050    -0.78400
C177        C  0.00969452  0.00962601  0.62184100     0.82400
N178        N  0.00776489  0.07027420  0.63817483    -0.80100
N179        N  0.49719320  0.14955396  0.75034240    -0.37000
N180        N  0.48642385  0.25180714  0.80308175    -0.57600
N181        N  0.49706761  0.35777306  0.75079767    -0.37000
N182        N  0.00025913  0.25685231  0.69809994    -0.57600
C183        C  0.47818588  0.12573589  0.77726306     0.26600
C184        C  0.98559571  0.12797750  0.72411068     0.26600
C185        C  0.47805517  0.38455629  0.77773829     0.26600
C186        C  0.98539600  0.38734090  0.72460614     0.26600
C187        C  0.49154861  0.19318738  0.82059729     0.35200
C188        C  0.49149390  0.30568078  0.82084178     0.35200
C189        C  0.00933821  0.20044242  0.67962698     0.35200
C190        C  0.00932365  0.31293799  0.67991024     0.35200
C191        C  0.45314131  0.09267140  0.76822654    -0.22300
C192        C  0.95787600  0.09439900  0.73442963    -0.22300
C193        C  0.45292679  0.42800896  0.76872860    -0.22300
C194        C  0.45752553  0.42998302  0.73493003    -0.22300
C195        C  0.50049535  0.20959499  0.85021650    -0.23300
C196        C  0.50044460  0.28124915  0.85036696    -0.23300
C197        C  0.02480442  0.22044828  0.64890125    -0.23300
C198        C  0.02480954  0.29222619  0.64907625    -0.23300
C199        C  0.48506492  0.12834216  0.80946743    -0.18700
C200        C  0.00083116  0.13398160  0.69129850    -0.18700
C201        C  0.00076076  0.38067349  0.69183649    -0.18700
C202        C  0.48503975  0.37466454  0.80992333    -0.18700
H203        H  0.43348476  0.07100785  0.78448700     0.14200
H204        H  0.94238556  0.07448881  0.71900471     0.14200
H205        H  0.43324856  0.45443654  0.78500964     0.14200
H206        H  0.94212775  0.45741637  0.71948706     0.14200
H207        H  0.50611865  0.17485323  0.86990616     0.12500
H208        H  0.50596410  0.31084809  0.87016646     0.12500
H209        H  0.03467495  0.18762472  0.62845738     0.12500
H210        H  0.03472316  0.32466552  0.62875572     0.12500
H211        H  0.51855607  0.17403242  0.74982286     0.25800
H212        H  0.51847676  0.32561970  0.75025068     0.25800
C213        C  0.35853305  0.14331836  0.48355467    -0.09500
C214        C  0.33170041  0.11889841  0.50431893     0.06700
C215        C  0.33699635  0.07127938  0.02947302    -0.03300
C216        C  0.36865549  0.05029285  0.03420419    -0.07800
C217        C  0.39580175  0.07552295  0.51397457     0.05800
C218        C  0.39030995  0.12227775  0.48800526    -0.02800
Br219      Br  0.42437696  0.16120759  0.45790878    -0.02500
H220        H  0.35479661  0.18145650  0.46441794     0.09700
H221        H  0.37186161  0.01215035  0.05345159     0.07700
Br222      Br  0.30188714  0.03080337  0.05717752    -0.02900
C223        C  0.15278451  0.34941943  0.01533443    -0.09500
C224        C  0.17850538  0.37704816  0.99403810     0.06700
C225        C  0.17141335  0.42012350  0.96755890    -0.03300
C226        C  0.13916926  0.43451879  0.96279612    -0.07800
C227        C  0.11350843  0.40674858  0.98411033     0.05800
C228        C  0.12060820  0.36375566  0.01055595    -0.02800
Br229      Br  0.08742047  0.32072006  0.03986173    -0.02500
H230        H  0.15777017  0.31367047  0.03500641     0.09700
H231        H  0.13403850  0.47023556  0.94315877     0.07700
Br232      Br  0.20458502  0.46326642  0.93828636    -0.02900
C233        C  0.15891596  0.12257308  0.52238247    -0.09500
C234        C  0.17545109  0.15867359  0.49560393     0.06700
C235        C  0.15822617  0.18324313  0.47009135    -0.03300
C236        C  0.12585313  0.16975691  0.47140707    -0.07800
C237        C  0.10965002  0.13146249  0.49747754     0.06200
C238        C  0.12650937  0.10817289  0.52337872    -0.02800
Br239      Br  0.10847346  0.55206854  0.55895616    -0.02500
H240        H  0.17142093  0.10454869  0.54250474     0.09700
H241        H  0.11343885  0.18758048  0.45117517     0.07700
Br242      Br  0.17633923  0.23791400  0.93287830    -0.02900
C243        C  0.35835244  0.35060070  0.97417310    -0.09500
C244        C  0.33679114  0.34192533  0.00365421     0.06700
C245        C  0.34958820  0.33948967  0.53351212    -0.03300
C246        C  0.38258497  0.34656056  0.53317447    -0.07800
C247        C  0.40398508  0.35652895  0.00381209     0.05800
C248        C  0.39141689  0.35760960  0.97391517    -0.02800
Br249      Br  0.41775828  0.36646335  0.93153277    -0.02500
H250        H  0.34967193  0.35034903  0.95082833     0.09700
H251        H  0.39124335  0.34676229  0.55653683     0.07700
Br252      Br  0.32441037  0.32600730  0.57621939    -0.02900
O253        O  0.47798201  0.51429345  0.08003241    -0.81300
O254        O  0.47597080  0.00339856  0.43547226    -0.66000
O255        O  0.49712982  0.95302169  0.01965760    -1.12600
C256        C  0.07927605  0.60326815  0.99225097     1.05600
O257        O  0.02766457  0.98443000  0.41360099    -0.79200
O258        O  0.07219210  0.94964191  0.45398369    -0.66800
Ni259      Ni  0.46392383  0.94237966  0.05602265     1.34900
C260        C  0.08042120  0.93693208  0.48201247     0.84400
O261        O  0.45117120  0.91497451  0.48188467    -0.79700
O262        O  0.44733228  0.87176570  0.03343411    -0.90000
C263        C  0.49795123  0.99493183  0.41070051     0.83900
O264        O  0.43036193  0.50597563  0.04317528    -0.68200
O265        O  0.07848940  0.58392551  0.46319672    -0.87500
C266        C  0.42832028  0.54384768  0.01779682     0.84800
C267        C  0.43718072  0.87901174  0.50562176     1.06300
H268        H  0.00711450  0.58831622  0.47545518     0.38100
O269        O  0.01721251  0.54175529  0.47632125    -1.10100
O270        O  0.06343787  0.95890149  0.00859895    -0.66800
Ni271      Ni  0.02624670  0.52417827  0.01975608     1.26300
O272        O  0.45217895  0.54871177  0.49481083    -0.67000
O273        O  0.05690701  0.59345662  0.01663932    -0.79300
C274        C  0.00646720  0.51171129  0.08722248     0.84100
O275        O  0.03117854  0.50687926  0.06488026    -0.66500
Ni276      Ni  0.05150514  0.53413064  0.44031814     1.27400
Ni277      Ni  0.48494979  0.97739225  0.47820390     1.26100
H278        H  0.50979377  0.90893442  0.01727176     0.38700
O279        O  0.21603112  0.69324610  0.02435118    -0.74800
O280        O  0.28447779  0.80997826  0.02739169    -0.74800
O281        O  0.21887878  0.82813092  0.02381389    -0.74900
O282        O  0.28154905  0.67481435  0.02795754    -0.74900
O283        O  0.29313052  0.67595348  0.47337592    -0.74900
O284        O  0.23063538  0.82972569  0.46907895    -0.74900
O285        O  0.29642010  0.81065912  0.47287862    -0.74800
O286        O  0.22752831  0.69445680  0.46986640    -0.74900
Ni287      Ni  0.24986455  0.75158995  0.02781927     1.25400
Ni288      Ni  0.26232080  0.75279453  0.46932668     1.25400
C289        C  0.20844683  0.68136014  0.49646177     0.87400
C290        C  0.30401180  0.82257684  0.50094448     0.87300
C291        C  0.21190131  0.84788992  0.49556082     0.87300
C292        C  0.29977460  0.65548914  0.50153558     0.87500
C293        C  0.48524322  0.93888530  0.32951198     0.79800
N294        N  0.48854531  0.93691856  0.36177324    -0.78500
C295        C  0.48952928  0.99695024  0.37774146     0.82300
N296        N  0.48806355  0.55868009  0.36151631    -0.78400
C297        C  0.48518677  0.56179738  0.32924860     0.82400
N298        N  0.48395357  0.00154484  0.31368266    -0.80100
C299        C  0.00563234  0.56966813  0.17160881     0.79800
N300        N  0.00452343  0.50733464  0.18784893    -0.78500
C301        C  0.00554412  0.94659632  0.17195824     0.82300
N302        N  0.00789662  0.94851421  0.13880782    -0.78400
C303        C  0.00971528  0.51046118  0.12191410     0.82400
N304        N  0.00793615  0.57094026  0.13834012    -0.80100
N305        N  0.49773382  0.64949182  0.25044194    -0.37000
N306        N  0.48673435  0.75192600  0.30315378    -0.57600
N307        N  0.49753534  0.85802169  0.25084780    -0.37000
N308        N  0.00057315  0.75712646  0.19832014    -0.57600
C309        C  0.47856572  0.62597724  0.27732560     0.26600
C310        C  0.98567282  0.62828198  0.22429138     0.26600
C311        C  0.47828056  0.88451380  0.27771311     0.26600
C312        C  0.98546154  0.88767123  0.22465132     0.26600
C313        C  0.49166285  0.69337596  0.32078304     0.35200
C314        C  0.49151150  0.80589954  0.32099763     0.35200
C315        C  0.00971373  0.70066733  0.17990162     0.35200
C316        C  0.00969555  0.81316519  0.18012063     0.35200
C317        C  0.45338491  0.59347849  0.26823719    -0.22300
C318        C  0.95790525  0.59475975  0.23445782    -0.22300
C319        C  0.45306084  0.92749061  0.26857240    -0.22300
C320        C  0.45783784  0.92948696  0.23477535    -0.22300
C321        C  0.50018263  0.70992206  0.35057764    -0.23300
C322        C  0.50007093  0.78159673  0.35071056    -0.23300
C323        C  0.02530947  0.72058790  0.14921385    -0.23300
C324        C  0.02531081  0.79236737  0.14934860    -0.23300
C325        C  0.48531936  0.62850150  0.30957520    -0.18700
C326        C  0.00107145  0.63426865  0.19153376    -0.18700
C327        C  0.00099660  0.88093877  0.19194532    -0.18700
C328        C  0.48508672  0.87482137  0.30996882    -0.18700
H329        H  0.43358406  0.57223957  0.28446301     0.14200
H330        H  0.94250595  0.57488641  0.21892652     0.14200
H331        H  0.43320437  0.95357688  0.28476642     0.14200
H332        H  0.94225188  0.95769010  0.21925048     0.14200
H333        H  0.50550667  0.67526949  0.37041002     0.12500
H334        H  0.50524030  0.81128210  0.37064392     0.12500
H335        H  0.03524913  0.68771200  0.12880943     0.12500
H336        H  0.03528395  0.82476074  0.12903593     0.12500
H337        H  0.51919143  0.67359428  0.24997240     0.25800
H338        H  0.51903422  0.82621098  0.25040875     0.25800
C339        C  0.35877564  0.64435995  0.98307727    -0.09500
C340        C  0.33180187  0.61943418  0.00341917     0.06700
C341        C  0.33691123  0.57232983  0.52904910    -0.03300
C342        C  0.36850482  0.55121753  0.53396975    -0.07800
C343        C  0.39571900  0.57618630  0.01374489     0.05800
C344        C  0.39046775  0.62351822  0.98792950    -0.02800
Br345      Br  0.42480562  0.66389840  0.95881785    -0.02500
H346        H  0.35519717  0.68291407  0.96407249     0.09700
H347        H  0.37157911  0.51316950  0.55328980     0.07700
Br348      Br  0.30162185  0.53273917  0.55688751    -0.02900
C349        C  0.15311260  0.84967606  0.51467055    -0.09500
C350        C  0.17873153  0.87804672  0.49351792     0.06700
C351        C  0.17149542  0.92167929  0.46729385    -0.03300
C352        C  0.13922037  0.93572902  0.46255094    -0.07800
C353        C  0.11366330  0.90716427  0.48369602     0.05800
C354        C  0.12089762  0.86378344  0.50996325    -0.02800
Br355      Br  0.08782470  0.82013425  0.53916326    -0.02500
H356        H  0.15821684  0.81360947  0.53418231     0.09700
H357        H  0.13396997  0.97183856  0.44310387     0.07700
Br358      Br  0.20452127  0.96621663  0.43848787    -0.02900
C359        C  0.15918266  0.62351629  0.02164714    -0.09500
C360        C  0.17550210  0.66007205  0.99490337     0.06700
C361        C  0.15805038  0.68488760  0.96959553    -0.03300
C362        C  0.12570693  0.67095153  0.97101021    -0.07800
C363        C  0.10973836  0.63217964  0.99704473     0.06200
C364        C  0.12679572  0.60885687  0.02279124    -0.02800
Br365      Br  0.10782377  0.05191970  0.05935023    -0.02500
H366        H  0.17184394  0.60534446  0.04163714     0.09700
H367        H  0.11312170  0.68887760  0.95091363     0.07700
Br368      Br  0.17572932  0.74079712  0.43288597    -0.02900
C369        C  0.35898670  0.85104620  0.47339001    -0.09500
C370        C  0.33752582  0.84118680  0.50283461     0.06700
C371        C  0.35018392  0.83849846  0.03286895    -0.03300
C372        C  0.38317399  0.84544274  0.03262294    -0.07800
C373        C  0.40477296  0.85526470  0.50300753     0.05800
C374        C  0.39210547  0.85761006  0.47313324    -0.02800
Br375      Br  0.41844611  0.86735744  0.43079288    -0.02500
H376        H  0.35017775  0.85208919  0.45007732     0.09700
H377        H  0.39179201  0.84538536  0.05601388     0.07700
Br378      Br  0.32503161  0.82416221  0.07550830    -0.02900
O379        O  0.47806062  0.51417609  0.58005137    -0.81300
O380        O  0.47595302  0.00323356  0.93551035    -0.66000
O381        O  0.49717205  0.95290663  0.51957525    -1.12600
C382        C  0.07930393  0.60321030  0.49234359     1.05600
O383        O  0.02765052  0.98398072  0.91369258    -0.79200
O384        O  0.07224548  0.94964498  0.95403653    -0.66800
Ni385      Ni  0.46396373  0.94198619  0.55591016     1.34900
C386        C  0.08043827  0.93700030  0.98208507     0.84400
O387        O  0.45107688  0.91503406  0.98203685    -0.79700
O388        O  0.44744510  0.87142070  0.53321905    -0.90000
C389        C  0.49795393  0.99465857  0.91076073     0.83900
O390        O  0.43040922  0.50609460  0.54320953    -0.68200
O391        O  0.07845162  0.58391305  0.96311795    -0.87500
C392        C  0.42835894  0.54400502  0.51784387     0.84800
C393        C  0.43706298  0.87924766  0.00583664     1.06300
H394        H  0.00709475  0.58821657  0.97540316     0.38100
O395        O  0.01719300  0.54166353  0.97631279    -1.10100
O396        O  0.06345708  0.95882139  0.50854769    -0.66800
Ni397      Ni  0.02627231  0.52406898  0.51975548     1.26300
O398        O  0.45216464  0.54862790  0.99479569    -0.67000
O399        O  0.05692831  0.59333815  0.51671534    -0.79300
C400        C  0.00650454  0.51137739  0.58721926     0.84100
O401        O  0.03121094  0.50656867  0.56486863    -0.66500
Ni402      Ni  0.05148517  0.53390718  0.94031689     1.27400
Ni403      Ni  0.48490982  0.97736807  0.97827043     1.26100
H404        H  0.50987104  0.90884685  0.51714518     0.38700
O405        O  0.21603126  0.69354156  0.52445583    -0.74800
O406        O  0.28449465  0.81036549  0.52728811    -0.74800
O407        O  0.21889335  0.82843203  0.52372637    -0.74900
O408        O  0.28156012  0.67519478  0.52806258    -0.74900
O409        O  0.29314194  0.67597477  0.97326999    -0.74900
O410        O  0.23061269  0.82972540  0.96916620    -0.74900
O411        O  0.29636888  0.81072139  0.97297794    -0.74800
O412        O  0.22753898  0.69446551  0.96976184    -0.74900
Ni413      Ni  0.24987523  0.75194431  0.52782350     1.25400
Ni414      Ni  0.26231107  0.75282245  0.96932187     1.25400
C415        C  0.20845489  0.68122415  0.99633576     0.87400
C416        C  0.30394737  0.82253826  0.00106193     0.87300
C417        C  0.21188783  0.84777160  0.99566869     0.87300
C418        C  0.29976892  0.65528020  0.00140464     0.87500
C419        C  0.48543011  0.93863337  0.82951702     0.79800
N420        N  0.48865235  0.93666811  0.86179721    -0.78500
C421        C  0.48958576  0.99669994  0.87778163     0.82300
N422        N  0.48826114  0.55843958  0.86151801    -0.78400
C423        C  0.48546313  0.56154739  0.82923226     0.82400
N424        N  0.48416961  0.00129197  0.81368455    -0.80100
C425        C  0.00564574  0.56933618  0.67161570     0.79800
N426        N  0.00458084  0.50699386  0.68784819    -0.78500
C427        C  0.00556825  0.94625798  0.67196568     0.82300
N428        N  0.00789687  0.94817815  0.63881695    -0.78400
C429        C  0.00976210  0.51013283  0.62191219     0.82400
N430        N  0.00794384  0.57061348  0.63834644    -0.80100
N431        N  0.49798572  0.64921380  0.75042527    -0.37000
N432        N  0.48700135  0.75167323  0.80314129    -0.57600
N433        N  0.49766824  0.85778044  0.75084322    -0.37000
N434        N  0.00054009  0.75680131  0.69833401    -0.57600
C435        C  0.47883166  0.62572661  0.77732340     0.26600
C436        C  0.98569896  0.62791526  0.72431837     0.26600
C437        C  0.47844524  0.88425728  0.77773066     0.26600
C438        C  0.98548044  0.88737560  0.72467312     0.26600
C439        C  0.49195996  0.69312445  0.82076140     0.35200
C440        C  0.49177242  0.80565486  0.82098222     0.35200
C441        C  0.00968110  0.70034326  0.67991339     0.35200
C442        C  0.00966350  0.81283776  0.68013237     0.35200
C443        C  0.45362844  0.59325615  0.76826563    -0.22300
C444        C  0.95796497  0.59429876  0.73451490    -0.22300
C445        C  0.45319460  0.92720028  0.76863106    -0.22300
C446        C  0.45791736  0.92918909  0.73483496    -0.22300
C447        C  0.50049965  0.70967570  0.85054565    -0.23300
C448        C  0.50036728  0.78135776  0.85068193    -0.23300
C449        C  0.02526984  0.72026456  0.64922358    -0.23300
C450        C  0.02527164  0.79203982  0.64935837    -0.23300
C451        C  0.48561316  0.62824795  0.80955960    -0.18700
C452        C  0.00106360  0.63393195  0.69154840    -0.18700
C453        C  0.00098966  0.88061619  0.69195861    -0.18700
C454        C  0.48530011  0.87457089  0.80996843    -0.18700
H455        H  0.43383277  0.57204632  0.78451118     0.14200
H456        H  0.94256546  0.57435597  0.71900411     0.14200
H457        H  0.43335397  0.95326997  0.78485160     0.14200
H458        H  0.94230496  0.95753118  0.71930745     0.14200
H459        H  0.50584613  0.67501476  0.87036772     0.12500
H460        H  0.50554204  0.81105565  0.87060912     0.12500
H461        H  0.03521384  0.68738998  0.62882013     0.12500
H462        H  0.03524877  0.82442937  0.62904627     0.12500
H463        H  0.51945125  0.67330011  0.74993217     0.25800
H464        H  0.51918013  0.82600024  0.75037155     0.25800
C465        C  0.35877918  0.64447600  0.48315390    -0.09500
C466        C  0.33181911  0.61972268  0.50358847     0.06700
C467        C  0.33686633  0.57178308  0.02878742    -0.03300
C468        C  0.36844977  0.55066113  0.03374075    -0.07800
C469        C  0.39576354  0.57648839  0.51384977     0.05800
C470        C  0.39048393  0.62364300  0.48797134    -0.02800
Br471      Br  0.42479152  0.66376691  0.45870196    -0.02500
H472        H  0.35518256  0.68287125  0.46408674     0.09700
H473        H  0.37151164  0.51244376  0.05299340     0.07700
Br474      Br  0.30155202  0.53190495  0.05645609    -0.02900
C475        C  0.15309964  0.84976852  0.01481662    -0.09500
C476        C  0.17873324  0.87804731  0.99364720     0.06700
C477        C  0.17151442  0.92165491  0.96740457    -0.03300
C478        C  0.13924363  0.93576212  0.96266288    -0.07800
C479        C  0.11367457  0.90725700  0.98381343     0.05800
C480        C  0.12088933  0.86391239  0.01009952    -0.02800
Br481      Br  0.08779842  0.82030721  0.03929347    -0.02500
H482        H  0.15818767  0.81371607  0.03433934     0.09700
H483        H  0.13400821  0.97183793  0.94319749     0.07700
Br484      Br  0.20455897  0.96601012  0.93853194    -0.02900
C485        C  0.15917149  0.62365757  0.52180533    -0.09500
C486        C  0.17549023  0.66019903  0.49505536     0.06700
C487        C  0.15804245  0.68496213  0.46973661    -0.03300
C488        C  0.12571137  0.67096556  0.47113684    -0.07800
C489        C  0.10974951  0.63216676  0.49716293     0.06200
C490        C  0.12679400  0.60892257  0.52293130    -0.02800
Br491      Br  0.10790014  0.05166976  0.55941036    -0.02500
H492        H  0.17182795  0.60554216  0.54180690     0.09700
H493        H  0.11313217  0.68886126  0.45103157     0.07700
Br494      Br  0.17575096  0.74071438  0.93274767    -0.02900
C495        C  0.35902492  0.85029899  0.97352789    -0.09500
C496        C  0.33741102  0.84145478  0.00296955     0.06700
C497        C  0.35049366  0.83691276  0.53263589    -0.03300
C498        C  0.38348780  0.84390359  0.53232153    -0.07800
C499        C  0.40462440  0.85561191  0.00328908     0.05800
C500        C  0.39212154  0.85694671  0.97335077    -0.02800
Br501      Br  0.41867550  0.86539854  0.93104833    -0.02500
H502        H  0.35036205  0.85043694  0.95016258     0.09700
H503        H  0.39224290  0.84284520  0.55566641     0.07700
Br504      Br  0.32565328  0.82030509  0.57520998    -0.02900
O505        O  0.97799073  0.01335738  0.08000660    -0.81300
O506        O  0.97584263  0.50345203  0.43558067    -0.66000
O507        O  0.99694347  0.45338792  0.01983354    -1.12600
C508        C  0.57928157  0.10323005  0.99242514     1.05600
O509        O  0.52751942  0.48349166  0.41385144    -0.79200
O510        O  0.57226798  0.44947225  0.45406251    -0.66800
Ni511      Ni  0.96370462  0.44327868  0.05622737     1.34900
C512        C  0.58041905  0.43674333  0.48212089     0.84400
O513        O  0.95080280  0.41562270  0.48221519    -0.79700
O514        O  0.94697588  0.37261974  0.03379837    -0.90000
C515        C  0.99783603  0.49456783  0.41084174     0.83900
O516        O  0.93048795  0.00501456  0.04305788    -0.68200
O517        O  0.57851565  0.08398843  0.46336144    -0.87500
C518        C  0.92838591  0.04311321  0.01776436     0.84800
C519        C  0.93671880  0.38002483  0.50604584     1.06300
H520        H  0.50704351  0.08832550  0.47546036     0.38100
O521        O  0.51722854  0.04183320  0.47628517    -1.10100
O522        O  0.56336303  0.45871782  0.00871976    -0.66800
Ni523      Ni  0.52629175  0.02401132  0.01972313     1.26300
O524        O  0.95220326  0.04821768  0.49474245    -0.67000
O525        O  0.55685030  0.09345475  0.01675384    -0.79300
C526        C  0.50653608  0.01106105  0.08717815     0.84100
O527        O  0.53123927  0.00645396  0.06482350    -0.66500
Ni528      Ni  0.55157646  0.03452585  0.44031705     1.27400
Ni529      Ni  0.98476368  0.47765620  0.47836805     1.26100
H530        H  0.00953269  0.40920430  0.01752379     0.38700
O531        O  0.71598607  0.19256428  0.02482957    -0.74800
O532        O  0.78427720  0.30962737  0.02788468    -0.74800
O533        O  0.71874474  0.32753658  0.02416199    -0.74900
O534        O  0.78149630  0.17436538  0.02851615    -0.74900
O535        O  0.79307662  0.17535262  0.47390066    -0.74900
O536        O  0.73054465  0.32885427  0.46939463    -0.74900
O537        O  0.79622559  0.31016358  0.47337256    -0.74800
O538        O  0.72757696  0.19348659  0.47029952    -0.74900
Ni539      Ni  0.74975143  0.25106897  0.02829394     1.25400
Ni540      Ni  0.76225428  0.25204823  0.46977373     1.25400
C541        C  0.70846382  0.18040716  0.49686973     0.87400
C542        C  0.80371384  0.32236625  0.50144976     0.87300
C543        C  0.71180044  0.34716702  0.49583779     0.87300
C544        C  0.79970309  0.15490445  0.50206279     0.87500
C545        C  0.98525279  0.43890633  0.32951742     0.79800
N546        N  0.98849814  0.43677166  0.36180060    -0.78500
C547        C  0.98948017  0.49672712  0.37784303     0.82300
N548        N  0.98804919  0.05904079  0.36133791    -0.78400
C549        C  0.98509446  0.06200807  0.32909167     0.82400
N550        N  0.98401537  0.50163385  0.31375281    -0.80100
C551        C  0.50546399  0.06958655  0.17151038     0.79800
N552        N  0.50464670  0.00728318  0.18779440    -0.78500
C553        C  0.50523665  0.44665739  0.17197101     0.82300
N554        N  0.50758085  0.44875119  0.13882245    -0.78400
C555        C  0.50981146  0.01008512  0.12186190     0.82400
N556        N  0.50775202  0.07068762  0.13824442    -0.80100
N557        N  0.99728222  0.14977980  0.25025019    -0.37000
N558        N  0.98653195  0.25211121  0.30300796    -0.57600
N559        N  0.99710686  0.35812390  0.25075798    -0.37000
N560        N  0.49994774  0.25718009  0.19817890    -0.57600
C561        C  0.97825182  0.12609723  0.27718639     0.26600
C562        C  0.48528614  0.12821043  0.22415483     0.26600
C563        C  0.97805082  0.38481243  0.27769820     0.26600
C564        C  0.48504675  0.38774220  0.22463903     0.26600
C565        C  0.99164544  0.19348862  0.32052310     0.35200
C566        C  0.99153552  0.30599415  0.32079763     0.35200
C567        C  0.50915332  0.20075139  0.17975023     0.35200
C568        C  0.50909301  0.31324522  0.18001660     0.35200
C569        C  0.95312379  0.09326751  0.26817946    -0.22300
C570        C  0.45763751  0.09433238  0.23438428    -0.22300
C571        C  0.95285770  0.42805921  0.26868186    -0.22300
C572        C  0.95745906  0.43002041  0.23488330    -0.22300
C573        C  0.00053282  0.20990046  0.35016988    -0.23300
C574        C  0.00044422  0.28156331  0.35034067    -0.23300
C575        C  0.52478024  0.22072660  0.14908695    -0.23300
C576        C  0.52475292  0.29250522  0.14925062    -0.23300
C577        C  0.98515256  0.12865782  0.30938434    -0.18700
C578        C  0.50063316  0.13427898  0.19138519    -0.18700
C579        C  0.50047577  0.38099665  0.19189476    -0.18700
C580        C  0.98502168  0.37496816  0.30989497    -0.18700
H581        H  0.93342977  0.07178168  0.28445955     0.14200
H582        H  0.44226570  0.07420733  0.21889679     0.14200
H583        H  0.93313148  0.45434651  0.28495875     0.14200
H584        H  0.44194008  0.45825850  0.21944447     0.14200
H585        H  0.00612196  0.17515830  0.36987225     0.12500
H586        H  0.00589479  0.31116736  0.37017113     0.12500
H587        H  0.53478973  0.18787684  0.12869292     0.12500
H588        H  0.53477608  0.32492822  0.12897304     0.12500
H589        H  0.01869229  0.17409778  0.24970727     0.25800
H590        H  0.01855794  0.32611051  0.25021222     0.25800
C591        C  0.85867035  0.14373906  0.98340197    -0.09500
C592        C  0.83176917  0.11899381  0.00392895     0.06700
C593        C  0.83695410  0.07168089  0.52945126    -0.03300
C594        C  0.86859201  0.05057190  0.53421790    -0.07800
C595        C  0.89576761  0.07554480  0.01386610     0.05800
C596        C  0.89040241  0.12270225  0.98801405    -0.02800
Br597      Br  0.92460416  0.16233127  0.95838459    -0.02500
H598        H  0.85501452  0.18217909  0.96436951     0.09700
H599        H  0.87174740  0.01253811  0.55352334     0.07700
Br600      Br  0.80178872  0.03157953  0.55724275    -0.02900
C601        C  0.65303193  0.34935657  0.51487301    -0.09500
C602        C  0.67868970  0.37753587  0.49371569     0.06700
C603        C  0.67152067  0.42110833  0.46743729    -0.03300
C604        C  0.63925138  0.43533986  0.46269378    -0.07800
C605        C  0.61365129  0.40694084  0.48385578     0.05800
C606        C  0.62084155  0.36356059  0.51013502    -0.02800
Br607      Br  0.58776587  0.31986518  0.53928315    -0.02500
H608        H  0.65808507  0.31329809  0.53440609     0.09700
H609        H  0.63404466  0.47140674  0.44321470     0.07700
Br610      Br  0.70461417  0.46526771  0.43853105    -0.02900
C611        C  0.65914902  0.12280798  0.02203077    -0.09500
C612        C  0.67558279  0.15917421  0.99528772     0.06700
C613        C  0.65826649  0.18390271  0.96987063    -0.03300
C614        C  0.62588996  0.17034220  0.97125025    -0.07800
C615        C  0.60977985  0.13183811  0.99730065     0.06200
C616        C  0.62674617  0.10834254  0.02309203    -0.02800
Br617      Br  0.60831781  0.55133112  0.05883244    -0.02500
H618        H  0.67173323  0.10462266  0.04207392     0.09700
H619        H  0.61339759  0.18828413  0.95109011     0.07700
Br620      Br  0.67615110  0.23916484  0.43298028    -0.02900
C621        C  0.85851669  0.35155552  0.47390968    -0.09500
C622        C  0.83709200  0.34166348  0.50335898     0.06700
C623        C  0.84984537  0.33910301  0.03335770    -0.03300
C624        C  0.88282908  0.34620720  0.03306917    -0.07800
C625        C  0.90426877  0.35642031  0.50349852     0.05800
C626        C  0.89158609  0.35854927  0.47363335    -0.02800
Br627      Br  0.91775803  0.36880752  0.43124772    -0.02500
H628        H  0.84971629  0.35232313  0.45059809     0.09700
H629        H  0.89146690  0.34625705  0.05644663     0.07700
Br630      Br  0.82467271  0.32515095  0.07602674    -0.02900
O631        O  0.97801314  0.01303596  0.58002082    -0.81300
O632        O  0.97583045  0.50320087  0.93560791    -0.66000
O633        O  0.99696583  0.45331815  0.51976725    -1.12600
C634        C  0.57925620  0.10324878  0.49252082     1.05600
O635        O  0.52755740  0.48309095  0.91395535    -0.79200
O636        O  0.57236014  0.44957800  0.95414581    -0.66800
Ni637      Ni  0.96372171  0.44311211  0.55614896     1.34900
C638        C  0.58045963  0.43692226  0.98223104     0.84400
O639        O  0.95077827  0.41549708  0.98232717    -0.79700
O640        O  0.94697060  0.37258635  0.53365355    -0.90000
C641        C  0.99784620  0.49422852  0.91089282     0.83900
O642        O  0.93051347  0.00495754  0.54302960    -0.68200
O643        O  0.57849619  0.08402283  0.96326599    -0.87500
C644        C  0.92840691  0.04315806  0.51776804     0.84800
C645        C  0.93670709  0.37997156  0.00619699     1.06300
H646        H  0.50706535  0.08824211  0.97544209     0.38100
O647        O  0.51723386  0.04173937  0.97628852    -1.10100
O648        O  0.56337769  0.45853690  0.50864058    -0.66800
Ni649      Ni  0.52627681  0.02397332  0.51972124     1.26300
O650        O  0.95218575  0.04812279  0.99473902    -0.67000
O651        O  0.55679440  0.09349195  0.51682299    -0.79300
C652        C  0.50649865  0.01076763  0.58717658     0.84100
O653        O  0.53120688  0.00630215  0.56482145    -0.66500
Ni654      Ni  0.55156290  0.03435104  0.94030744     1.27400
Ni655      Ni  0.98474163  0.47754996  0.97841815     1.26100
H656        H  0.00955523  0.40911949  0.51742216     0.38700
O657        O  0.71596322  0.19273035  0.52488007    -0.74800
O658        O  0.78423847  0.30991440  0.52778173    -0.74800
O659        O  0.71871683  0.32770976  0.52403833    -0.74900
O660        O  0.78147941  0.17463005  0.52858778    -0.74900
O661        O  0.79311446  0.17545360  0.97382800    -0.74900
O662        O  0.73053788  0.32892531  0.96951607    -0.74900
O663        O  0.79620860  0.31028501  0.97347013    -0.74800
O664        O  0.72761392  0.19355563  0.97024963    -0.74900
Ni665      Ni  0.74972468  0.25130132  0.52826716     1.25400
Ni666      Ni  0.76226735  0.25214677  0.96979886     1.25400
C667        C  0.70849903  0.18035173  0.99680077     0.87400
C668        C  0.80371115  0.32234207  0.00155812     0.87300
C669        C  0.71181456  0.34714657  0.99598482     0.87300
C670        C  0.79972640  0.15480394  0.00196792     0.87500
C671        C  0.98547992  0.43854757  0.82951181     0.79800
N672        N  0.98864744  0.43642591  0.86181265    -0.78500
C673        C  0.98954767  0.49639095  0.87787416     0.82300
N674        N  0.98819522  0.05869721  0.86135556    -0.78400
C675        C  0.98531762  0.06166702  0.82909094     0.82400
N676        N  0.98423998  0.50127549  0.81374738    -0.80100
C677        C  0.50546138  0.06934356  0.67151000     0.79800
N678        N  0.50465399  0.00704219  0.68779497    -0.78500
C679        C  0.50537776  0.44640062  0.67196508     0.82300
N680        N  0.50769689  0.44850143  0.63881817    -0.78400
C681        C  0.50977373  0.00982985  0.62186428     0.82400
N682        N  0.50772969  0.07043953  0.63824293    -0.80100
N683        N  0.99754884  0.14938928  0.75023735    -0.37000
N684        N  0.98685156  0.25174560  0.80298898    -0.57600
N685        N  0.99734799  0.35778614  0.75074174    -0.37000
N686        N  0.50003230  0.25693091  0.69818301    -0.57600
C687        C  0.97851811  0.12576496  0.77718658     0.26600
C688        C  0.48536025  0.12796156  0.72417856     0.26600
C689        C  0.97830173  0.38442956  0.77769753     0.26600
C690        C  0.48521230  0.38750763  0.72464576     0.26600
C691        C  0.99195243  0.19312568  0.82050960     0.35200
C692        C  0.99184103  0.30563394  0.82078156     0.35200
C693        C  0.50919093  0.20049703  0.67974605     0.35200
C694        C  0.50917933  0.31298256  0.68000916     0.35200
C695        C  0.95335008  0.09303020  0.76820661    -0.22300
C696        C  0.45772813  0.09405118  0.73444537    -0.22300
C697        C  0.95306486  0.42758820  0.76871326    -0.22300
C698        C  0.95762466  0.42954204  0.73491659    -0.22300
C699        C  0.00082625  0.20954020  0.85016207    -0.23300
C700        C  0.00073832  0.28120807  0.85033082    -0.23300
C701        C  0.52478493  0.22045596  0.64906638    -0.23300
C702        C  0.52478866  0.29222707  0.64922810    -0.23300
C703        C  0.98543798  0.12830666  0.80937597    -0.18700
C704        C  0.50066502  0.13403396  0.69139060    -0.18700
C705        C  0.50061062  0.38074363  0.69189291    -0.18700
C706        C  0.98530212  0.37460210  0.80988236    -0.18700
H707        H  0.93364723  0.07161653  0.78450382     0.14200
H708        H  0.44233990  0.07389926  0.71898310     0.14200
H709        H  0.93333559  0.45381393  0.78501041     0.14200
H710        H  0.44210937  0.45805943  0.71948230     0.14200
H711        H  0.00639511  0.17479238  0.86987076     0.12500
H712        H  0.00617090  0.31082386  0.87016637     0.12500
H713        H  0.53475524  0.18760094  0.62866308     0.12500
H714        H  0.53479961  0.32463541  0.62893928     0.12500
H715        H  0.01897952  0.17364288  0.74967347     0.25800
H716        H  0.01882089  0.32583590  0.75017143     0.25800
C717        C  0.85864157  0.14370048  0.48342928    -0.09500
C718        C  0.83175500  0.11914037  0.50405243     0.06700
C719        C  0.83693813  0.07131944  0.02925201    -0.03300
C720        C  0.86856311  0.05020727  0.03405538    -0.07800
C721        C  0.89578543  0.07567960  0.51391305     0.05800
C722        C  0.89038656  0.12265074  0.48799656    -0.02800
Br723      Br  0.92454958  0.16196428  0.45818212    -0.02500
H724        H  0.85496715  0.18198647  0.46433702     0.09700
H725        H  0.87170330  0.01202046  0.05330117     0.07700
Br726      Br  0.80174675  0.03099975  0.05690091    -0.02900
C727        C  0.65304334  0.34957767  0.01508033    -0.09500
C728        C  0.67871689  0.37764492  0.99389862     0.06700
C729        C  0.67156418  0.42121746  0.96761310    -0.03300
C730        C  0.63930073  0.43549912  0.96286565    -0.07800
C731        C  0.61368646  0.40716401  0.98403168     0.05800
C732        C  0.62085466  0.36384843  0.01034246    -0.02800
Br733      Br  0.58775293  0.32031406  0.03953037    -0.02500
H734        H  0.65808075  0.31354350  0.03462803     0.09700
H735        H  0.63411123  0.47153679  0.94336928     0.07700
Br736      Br  0.70467514  0.46528359  0.93868363    -0.02900
C737        C  0.65910311  0.12293157  0.52214440    -0.09500
C738        C  0.67553492  0.15926799  0.49538868     0.06700
C739        C  0.65820860  0.18401146  0.46998172    -0.03300
C740        C  0.62583278  0.17044810  0.47136979    -0.07800
C741        C  0.60973209  0.13192355  0.49741797     0.06200
C742        C  0.62669765  0.10846456  0.52321401    -0.02800
Br743      Br  0.60836152  0.55130752  0.55895293    -0.02500
H744        H  0.67169162  0.10476387  0.54218696     0.09700
H745        H  0.61333544  0.18838818  0.45121277     0.07700
Br746      Br  0.67622462  0.23902960  0.93286704    -0.02900
C747        C  0.85861685  0.35083444  0.97401514    -0.09500
C748        C  0.83707251  0.34176272  0.00346713     0.06700
C749        C  0.85000161  0.33807906  0.53318407    -0.03300
C750        C  0.88298115  0.34529186  0.53284896    -0.07800
C751        C  0.90423988  0.35642290  0.00370365     0.05800
C752        C  0.89167831  0.35780679  0.97379222    -0.02800
Br753      Br  0.91802551  0.36698881  0.93143096    -0.02500
H754        H  0.84992302  0.35094245  0.95066605     0.09700
H755        H  0.89171624  0.34461442  0.55619566     0.07700
Br756      Br  0.82506218  0.32240329  0.57581083    -0.02900
O757        O  0.97807164  0.51468894  0.08005277    -0.81300
O758        O  0.97586581  0.00321738  0.43546013    -0.66000
O759        O  0.99702397  0.95259261  0.01962612    -1.12600
C760        C  0.57917332  0.60301661  0.99227038     1.05600
O761        O  0.52776473  0.98469674  0.41358036    -0.79200
O762        O  0.57218466  0.94978306  0.45405606    -0.66800
Ni763      Ni  0.96379487  0.94201061  0.05598432     1.34900
C764        C  0.58040609  0.93711297  0.48209068     0.84400
O765        O  0.95096051  0.91487912  0.48189310    -0.79700
O766        O  0.94721881  0.87139417  0.03338936    -0.90000
C767        C  0.99786311  0.99482875  0.41069594     0.83900
O768        O  0.93047103  0.50634854  0.04321252    -0.68200
O769        O  0.57835935  0.58378619  0.46315326    -0.87500
C770        C  0.92839077  0.54416804  0.01782767     0.84800
C771        C  0.93692487  0.87903853  0.50565635     1.06300
H772        H  0.50704205  0.58782234  0.47550810     0.38100
O773        O  0.51714226  0.54125716  0.47633754    -1.10100
O774        O  0.56350230  0.95925554  0.00863774    -0.66800
Ni775      Ni  0.52618790  0.52368950  0.01974871     1.26300
O776        O  0.95222900  0.54904487  0.49478670    -0.67000
O777        O  0.55684336  0.59297092  0.01666475    -0.79300
C778        C  0.50637880  0.51134978  0.08720545     0.84100
O779        O  0.53109783  0.50637045  0.06487314    -0.66500
Ni780      Ni  0.55139802  0.53386810  0.44030281     1.27400
Ni781      Ni  0.98482421  0.97712580  0.47819314     1.26100
H782        H  0.00969271  0.90849263  0.01723986     0.38700
O783        O  0.71595432  0.69253460  0.02458165    -0.74800
O784        O  0.78428735  0.80957841  0.02767657    -0.74800
O785        O  0.71868205  0.82745361  0.02408766    -0.74900
O786        O  0.78150002  0.67436284  0.02817394    -0.74900
O787        O  0.79308789  0.67563115  0.47352647    -0.74900
O788        O  0.73045902  0.82902901  0.46931002    -0.74900
O789        O  0.79618647  0.81038635  0.47312648    -0.74800
O790        O  0.72750485  0.69374205  0.47003052    -0.74900
Ni791      Ni  0.74973543  0.75101785  0.02807725     1.25400
Ni792      Ni  0.76220113  0.75229010  0.46953043     1.25400
C793        C  0.70841970  0.68055083  0.49660775     0.87400
C794        C  0.80374286  0.82238000  0.50119704     0.87300
C795        C  0.71171252  0.84716723  0.49577975     0.87300
C796        C  0.79975632  0.65515897  0.50166992     0.87500
C797        C  0.98511002  0.93902199  0.32950179     0.79800
N798        N  0.98835953  0.93701920  0.36177282    -0.78500
C799        C  0.98947446  0.99700078  0.37772574     0.82300
N800        N  0.98793363  0.55884168  0.36153033    -0.78400
C801        C  0.98499891  0.56192842  0.32928015     0.82400
N802        N  0.98398679  0.00166539  0.31364643    -0.80100
C803        C  0.50564567  0.56955252  0.17155373     0.79800
N804        N  0.50449119  0.50725848  0.18782833    -0.78500
C805        C  0.50574457  0.94655524  0.17194435     0.82300
N806        N  0.50810577  0.94856099  0.13878924    -0.78400
C807        C  0.50962164  0.51022571  0.12189922     0.82400
N808        N  0.50791964  0.57075038  0.13828358    -0.80100
N809        N  0.99747490  0.64966541  0.25051449    -0.37000
N810        N  0.98637824  0.75208706  0.30321074    -0.57600
N811        N  0.99722590  0.85808711  0.25088481    -0.37000
N812        N  0.50078655  0.75702124  0.19825813    -0.57600
C813        C  0.97829704  0.62607686  0.27737139     0.26600
C814        C  0.48584205  0.62823333  0.22424618     0.26600
C815        C  0.97800901  0.88469979  0.27774249     0.26600
C816        C  0.48572080  0.88751101  0.22462114     0.26600
C817        C  0.99133454  0.69354163  0.32083440     0.35200
C818        C  0.99120834  0.80605489  0.32103005     0.35200
C819        C  0.50983345  0.70056919  0.17981124     0.35200
C820        C  0.50987980  0.81306667  0.18004571     0.35200
C821        C  0.95319257  0.59338941  0.26823770    -0.22300
C822        C  0.45803464  0.59487801  0.23446021    -0.22300
C823        C  0.95285573  0.92786703  0.26859315    -0.22300
C824        C  0.95763910  0.92984186  0.23479509    -0.22300
C825        C  0.99991061  0.71008936  0.35060306    -0.23300
C826        C  0.99981796  0.78175552  0.35072243    -0.23300
C827        C  0.52534107  0.72049963  0.14908771    -0.23300
C828        C  0.52538504  0.79227672  0.14923253    -0.23300
C829        C  0.98501257  0.62865009  0.30963037    -0.18700
C830        C  0.50117848  0.63418472  0.19146251    -0.18700
C831        C  0.50123433  0.88083680  0.19190406    -0.18700
C832        C  0.98482356  0.87498040  0.30999106    -0.18700
H833        H  0.93340641  0.57202488  0.28443334     0.14200
H834        H  0.44256521  0.57514703  0.21896162     0.14200
H835        H  0.93304256  0.95410650  0.28478128     0.14200
H836        H  0.44240308  0.95720374  0.21923795     0.14200
H837        H  0.00527918  0.67544598  0.37042191     0.12500
H838        H  0.00504931  0.81143332  0.37062943     0.12500
H839        H  0.53518621  0.68763426  0.12865224     0.12500
H840        H  0.53530169  0.82467534  0.12889632     0.12500
H841        H  0.01889447  0.67388825  0.25008269     0.25800
H842        H  0.01868497  0.82614658  0.25045573     0.25800
C843        C  0.85874453  0.64473354  0.98332748    -0.09500
C844        C  0.83181620  0.61936528  0.00356778     0.06700
C845        C  0.83697523  0.57182474  0.52895946    -0.03300
C846        C  0.86858209  0.55081168  0.53385443    -0.07800
C847        C  0.89576341  0.57636416  0.01381854     0.05800
C848        C  0.89045643  0.62400136  0.98814328    -0.02800
Br849      Br  0.92474450  0.66493247  0.95920562    -0.02500
H850        H  0.85510830  0.68351757  0.96443675     0.09700
H851        H  0.87169993  0.51245782  0.55303578     0.07700
Br852      Br  0.80173104  0.53156218  0.55655769    -0.02900
C853        C  0.65291882  0.84984537  0.51501251    -0.09500
C854        C  0.67859878  0.87755014  0.49367809     0.06700
C855        C  0.67144480  0.92058471  0.46721745    -0.03300
C856        C  0.63918946  0.93480926  0.46246730    -0.07800
C857        C  0.61357141  0.90696711  0.48381024     0.05800
C858        C  0.62072263  0.86407400  0.51027333    -0.02800
Br859      Br  0.58755752  0.82122734  0.53971561    -0.02500
H860        H  0.65795113  0.81416828  0.53469476     0.09700
H861        H  0.63401385  0.97049431  0.44283460     0.07700
Br862      Br  0.70456780  0.96390201  0.43796959    -0.02900
C863        C  0.65907865  0.62286161  0.02177926    -0.09500
C864        C  0.67544870  0.65942823  0.99507103     0.06700
C865        C  0.65804593  0.68433151  0.96973919    -0.03300
C866        C  0.62569215  0.67052494  0.97110817    -0.07800
C867        C  0.60966399  0.63176511  0.99711068     0.06200
C868        C  0.62668416  0.60829566  0.02286935    -0.02800
Br869      Br  0.60830019  0.05141610  0.05903186    -0.02500
H870        H  0.67170614  0.60460649  0.04178115     0.09700
H871        H  0.61314649  0.68854490  0.95099716     0.07700
Br872      Br  0.67582118  0.74002548  0.43297573    -0.02900
C873        C  0.85858025  0.85147900  0.47360437    -0.09500
C874        C  0.83720056  0.84132200  0.50306936     0.06700
C875        C  0.84997278  0.83857966  0.03306575    -0.03300
C876        C  0.88298233  0.84547124  0.03273800    -0.07800
C877        C  0.90445669  0.85551797  0.50310407     0.05800
C878        C  0.89169901  0.85809998  0.47327620    -0.02800
Br879      Br  0.91789193  0.86822701  0.43088503    -0.02500
H880        H  0.84971143  0.85266021  0.45031979     0.09700
H881        H  0.89166359  0.84533957  0.05609847     0.07700
Br882      Br  0.82487210  0.82437395  0.07574337    -0.02900
O883        O  0.97810395  0.51437442  0.58005925    -0.81300
O884        O  0.97584521  0.00291090  0.93548823    -0.66000
O885        O  0.99704315  0.95254913  0.51956195    -1.12600
C886        C  0.57923437  0.60279596  0.49233229     1.05600
O887        O  0.52774844  0.98425477  0.91368889    -0.79200
O888        O  0.57226929  0.94976639  0.95409212    -0.66800
Ni889      Ni  0.96381000  0.94184340  0.55590404     1.34900
C890        C  0.58044375  0.93711648  0.98214766     0.84400
O891        O  0.95092158  0.91473424  0.98201321    -0.79700
O892        O  0.94722255  0.87135845  0.53323274    -0.90000
C893        C  0.99786372  0.99445946  0.91074513     0.83900
O894        O  0.93050539  0.50631004  0.54318495    -0.68200
O895        O  0.57829936  0.58398585  0.96309422    -0.87500
C896        C  0.92842517  0.54423508  0.51783215     0.84800
C897        C  0.93688830  0.87901155  0.00582858     1.06300
H898        H  0.50702092  0.58779191  0.97546131     0.38100
O899        O  0.51713102  0.54124151  0.97632590    -1.10100
O900        O  0.56351943  0.95931823  0.50859579    -0.66800
Ni901      Ni  0.52622564  0.52354356  0.51975093     1.26300
O902        O  0.95220462  0.54896623  0.99479084    -0.67000
O903        O  0.55689539  0.59276881  0.51671445    -0.79300
C904        C  0.50646647  0.51111982  0.58720609     0.84100
O905        O  0.53116916  0.50605999  0.56485755    -0.66500
Ni906      Ni  0.55139411  0.53379107  0.94030656     1.27400
Ni907      Ni  0.98479922  0.97698538  0.97824235     1.26100
H908        H  0.00970803  0.90844787  0.51713807     0.38700
O909        O  0.71597615  0.69270353  0.52461765    -0.74800
O910        O  0.78426570  0.80994939  0.52753957    -0.74800
O911        O  0.71867054  0.82764381  0.52395228    -0.74900
O912        O  0.78152598  0.67470733  0.52821798    -0.74900
O913        O  0.79308443  0.67566054  0.97348239    -0.74900
O914        O  0.73044608  0.82907846  0.96944314    -0.74900
O915        O  0.79614914  0.81044482  0.97325806    -0.74800
O916        O  0.72749676  0.69380880  0.96999524    -0.74900
Ni917      Ni  0.74973893  0.75129771  0.52802831     1.25400
Ni918      Ni  0.76218822  0.75234386  0.96957847     1.25400
C919        C  0.70840102  0.68052838  0.99655325     0.87400
C920        C  0.80371190  0.82232861  0.00133927     0.87300
C921        C  0.71171761  0.84712774  0.99593458     0.87300
C922        C  0.79973768  0.65497729  0.00160278     0.87500
C923        C  0.98523012  0.93869773  0.82951106     0.79800
N924        N  0.98839950  0.93668909  0.86180204    -0.78500
C925        C  0.98952720  0.99666156  0.87775745     0.82300
N926        N  0.98800050  0.55851261  0.86156331    -0.78400
C927        C  0.98514478  0.56158427  0.82929227     0.82400
N928        N  0.98419624  0.00133297  0.81364198    -0.80100
C929        C  0.50580970  0.56929258  0.67154664     0.79800
N930        N  0.50465841  0.50699671  0.68782029    -0.78500
C931        C  0.50574076  0.94631489  0.67194889     0.82300
N932        N  0.50807895  0.94831383  0.63879686    -0.78400
C933        C  0.50973619  0.50997721  0.62189492     0.82400
N934        N  0.50805615  0.57049662  0.63827929    -0.80100
N935        N  0.99751038  0.64936087  0.75052486    -0.37000
N936        N  0.98645387  0.75176482  0.80322767    -0.57600
N937        N  0.99725111  0.85775036  0.75089525    -0.37000
N938        N  0.50090624  0.75676440  0.69825620    -0.57600
C939        C  0.97837383  0.62572295  0.77739949     0.26600
C940        C  0.48606031  0.62796051  0.72424979     0.26600
C941        C  0.97807090  0.88440599  0.77776515     0.26600
C942        C  0.48580054  0.88724223  0.72464058     0.26600
C943        C  0.99144091  0.69321765  0.82084194     0.35200
C944        C  0.99130449  0.80573471  0.82103597     0.35200
C945        C  0.50996185  0.70033217  0.67979691     0.35200
C946        C  0.50994195  0.81283887  0.68003777     0.35200
C947        C  0.95328431  0.59293777  0.76829427    -0.22300
C948        C  0.45824781  0.59464284  0.73449071    -0.22300
C949        C  0.95293357  0.92765356  0.76863591    -0.22300
C950        C  0.95768928  0.92962580  0.73483779    -0.22300
C951        C  0.00005611  0.70976565  0.85059226    -0.23300
C952        C  0.99995700  0.78143466  0.85071085    -0.23300
C953        C  0.52541598  0.72030555  0.64905874    -0.23300
C954        C  0.52541909  0.79208888  0.64920777    -0.23300
C955        C  0.98512227  0.62831428  0.80964671    -0.18700
C956        C  0.50135868  0.63392182  0.69145644    -0.18700
C957        C  0.50127240  0.88059128  0.69190821    -0.18700
C958        C  0.98491214  0.87466499  0.81000380    -0.18700
H959        H  0.93353005  0.57150663  0.78450919     0.14200
H960        H  0.44275310  0.57493823  0.71901137     0.14200
H961        H  0.93315017  0.95395422  0.78483736     0.14200
H962        H  0.44244907  0.95688930  0.71932545     0.14200
H963        H  0.00545951  0.67511353  0.87039591     0.12500
H964        H  0.00521848  0.81111648  0.87060285     0.12500
H965        H  0.53525186  0.68746397  0.62861182     0.12500
H966        H  0.53529110  0.82451487  0.62886263     0.12500
H967        H  0.01891442  0.67365372  0.75006962     0.25800
H968        H  0.01869562  0.82575429  0.75044921     0.25800
C969        C  0.85876061  0.64481370  0.48335608    -0.09500
C970        C  0.83183952  0.61959693  0.50366948     0.06700
C971        C  0.83693853  0.57140055  0.02878590    -0.03300
C972        C  0.86853908  0.55039869  0.03370481    -0.07800
C973        C  0.89580372  0.57656312  0.51386994     0.05800
C974        C  0.89048031  0.62406530  0.48814259    -0.02800
Br975      Br  0.92474713  0.66475730  0.45906314    -0.02500
H976        H  0.85511464  0.68347383  0.46441466     0.09700
H977        H  0.87165309  0.51191508  0.05283237     0.07700
Br978      Br  0.80168573  0.53090805  0.05626030    -0.02900
C979        C  0.65291965  0.84978797  0.01512421    -0.09500
C980        C  0.67861518  0.87759385  0.99385440     0.06700
C981        C  0.67149018  0.92077444  0.96743006    -0.03300
C982        C  0.63924516  0.93503698  0.96265119    -0.07800
C983        C  0.61361250  0.90705189  0.98391581     0.05800
C984        C  0.62073480  0.86402841  0.01034523    -0.02800
Br985      Br  0.58754667  0.82095631  0.03965377    -0.02500
H986        H  0.65793442  0.81399352  0.03476905     0.09700
H987        H  0.63408792  0.97082047  0.94304835     0.07700
Br988      Br  0.70464613  0.96416444  0.93825186    -0.02900
C989        C  0.65911603  0.62283539  0.52187134    -0.09500
C990        C  0.67547422  0.65939263  0.49515128     0.06700
C991        C  0.65806746  0.68422653  0.46981251    -0.03300
C992        C  0.62572840  0.67034117  0.47117687    -0.07800
C993        C  0.60971560  0.63156916  0.49718066     0.06200
C994        C  0.62672997  0.60819332  0.52295827    -0.02800
Br995      Br  0.60823928  0.05160337  0.55917249    -0.02500
H996        H  0.67174497  0.60465331  0.54188296     0.09700
H997        H  0.61318110  0.68831701  0.45106058     0.07700
Br998      Br  0.67583194  0.74010795  0.93290832    -0.02900
C999        C  0.85866966  0.85056933  0.97373328    -0.09500
C1000       C  0.83713442  0.84152611  0.00320718     0.06700
C1001       C  0.85022786  0.83700466  0.53283335    -0.03300
C1002       C  0.88322987  0.84404100  0.53245163    -0.07800
C1003       C  0.90437671  0.85565103  0.00336008     0.05800
C1004       C  0.89177343  0.85722320  0.97347155    -0.02800
Br1005     Br  0.91817461  0.86601582  0.93110756    -0.02500
H1006       H  0.84994146  0.85082128  0.95039828     0.09700
H1007       H  0.89204156  0.84287255  0.55576920     0.07700
Br1008     Br  0.82545460  0.82026923  0.57542948    -0.02900
loop_ 
_geom_bond_atom_site_label_1 
_geom_bond_atom_site_label_2 
_geom_bond_distance 
_geom_bond_site_symmetry_2 
_ccdc_geom_bond_type 
O1         Ni259   1.917   1_545  S
O1          C526   1.267       .  A
O2          Ni25   1.904       .  S
O2           C11   1.267       .  A
O3           Ni7   1.895       .  S
O3         Ni151   1.893   1_554  S
O3         Ni775   1.919       .  S
O3           H26   0.967       .  S
C4           O21   1.281   1_556  A
C4          O139   1.278       .  A
C4          C111   1.481       .  S
O5         Ni276   1.934       .  S
O5          C515   1.271   1_455  A
O6         Ni276   1.902       .  S
O6            C8   1.269       .  A
Ni7          O10   1.920       .  S
Ni7         O253   1.917       .  S
Ni7         O264   1.905       .  S
C8          O144   1.271       .  A
C8          C101   1.472       .  S
O9          Ni25   1.926       .  S
O9           C15   1.277       .  A
O10         C141   1.280       .  A
C11         O509   1.271       .  A
C11          C43   1.457       .  S
O12        Ni259   1.904   1_545  S
O12          C14   1.268       .  A
O13         Ni24   1.921       .  S
O13         C130   1.278       .  A
C14         O146   1.270   1_554  A
C14          C91   1.485       .  S
C15         O136   1.280       .  A
C15         C121   1.491       .  S
H16          O17   0.966       .  S
O17         Ni24   1.894       .  S
O17        Ni781   1.909   1_445  S
O17        Ni145   1.904       .  S
O18        Ni271   1.922       .  S
O18         C134   1.271   1_554  A
Ni19         O23   1.921       .  S
Ni19         O21   1.924       .  S
Ni19        O270   1.923   1_545  S
Ni19        O759   1.918   1_445  S
Ni19        O143   1.904   1_554  S
O20        Ni277   1.919   1_545  S
O20         C140   1.270       .  A
C22          O23   1.270       .  A
C22         O505   1.267   1_455  A
C22          C51   1.459       .  S
Ni24        O257   1.933   1_545  S
Ni24        O258   1.902   1_545  S
Ni25        O272   1.919       .  S
Ni25        O129   1.893       .  S
Ni25        O773   1.910       .  S
O27         Ni35   1.914       .  S
O27         C163   1.281   1_554  A
O28         Ni35   1.912       .  S
O28         C164   1.279       .  A
O29         Ni35   1.908       .  S
O29         C165   1.280   1_554  A
O30         Ni35   1.910       .  S
O30         C166   1.280       .  A
O31         Ni36   1.906       .  S
O31          C40   1.279       .  A
O32         Ni36   1.910       .  S
O32          C39   1.280       .  A
O33         Ni36   1.916       .  S
O33          C38   1.282       .  A
O34         Ni36   1.916       .  S
O34          C37   1.281       .  A
Ni35       Ni162   2.386   1_554  S
Ni36       Ni161   2.386       .  S
C37         O153   1.281       .  A
C37         C234   1.483       .  S
C38         O154   1.279       .  A
C38         C118   1.493       .  S
C39         O155   1.280       .  A
C39          C98   1.474       .  S
C40         O156   1.280       .  A
C40         C214   1.470       .  S
C41          C76   1.506       .  S
C41          N42   1.359       .  A
C41          N46   1.361       .  A
N42          C43   1.365       .  A
C43         N296   1.362       .  A
N44          C45   1.355       .  A
N44         C295   1.362   1_545  A
C45          C73   1.504       .  S
C45         N298   1.360       .  A
N46         C297   1.360       .  A
C47          C74   1.505       .  S
C47          N48   1.363       .  A
C47          N52   1.360       .  A
N48         C301   1.361   1_545  A
C49          C75   1.503       .  S
C49          N50   1.355       .  A
C49         N300   1.361       .  A
N50         C303   1.363       .  A
C51          N52   1.366       .  A
C51         N302   1.363   1_545  A
N53          C57   1.351       .  A
N53         C562   1.351       .  A
N53          H85   1.045       .  S
N54          C61   1.347       .  A
N54          C62   1.348       .  A
N55          C59   1.351       .  A
N55         C564   1.350       .  A
N55          H86   1.045       .  S
N56          C63   1.348       .  A
N56          C64   1.347       .  A
C57          C65   1.381       .  A
C57          C73   1.407       .  A
C58         N557   1.351       .  A
C58          C74   1.407   1_655  A
C58          C66   1.380       .  A
C59          C67   1.381       .  A
C59          C76   1.408       .  A
C60         N559   1.350       .  A
C60          C75   1.407   1_655  A
C60         C572   1.381       .  A
C61          C73   1.416       .  A
C61          C69   1.389       .  A
C62          C76   1.415       .  A
C62          C70   1.387       .  A
C63          C71   1.387       .  A
C63          C74   1.415       .  A
C64          C72   1.388       .  A
C64          C75   1.416       .  A
C65         C570   1.376       .  A
C65          H77   1.081       .  S
C66         C569   1.376       .  A
C66          H78   1.080       .  S
C67          C68   1.377       .  A
C67          H79   1.081       .  S
C68         C564   1.381       .  A
C68         H584   1.080       .  S
C69          C70   1.390       .  A
C69          H81   1.080       .  S
C70          H82   1.080       .  S
C71          C72   1.393       .  A
C71          H83   1.081       .  S
C72          H84   1.081       .  S
H80         C572   1.080       .  S
C87          C88   1.406   1_556  A
C87          C92   1.397       .  A
C87          H94   1.084       .  S
C88         C166   1.470       .  S
C88         C215   1.402       .  A
C89          C90   1.395       .  A
C89         C214   1.402       .  A
C89         Br96   1.919       .  S
C90         C217   1.414       .  A
C90          H95   1.083       .  S
C91          C92   1.414   1_554  A
C91         C216   1.414       .  A
C92         Br93   1.924       .  S
C97          C98   1.408       .  A
C97         C102   1.396       .  A
C97         H104   1.084       .  S
C98          C99   1.407       .  A
C99         C100   1.399       .  A
C99        Br106   1.919       .  S
C100        C101   1.408       .  A
C100        H105   1.084       .  S
C101        C102   1.405       .  A
C102       Br103   1.919       .  S
C107        C108   1.406   1_554  A
C107        C112   1.403       .  A
C107        H114   1.083       .  S
C108        C163   1.483       .  S
C108        C109   1.416       .  A
C109        C110   1.395       .  A
C109       Br242   1.923       .  S
C110        C111   1.403       .  A
C110        H115   1.084       .  S
C111        C112   1.414   1_556  A
C112       Br365   1.919       .  S
Br113       C364   1.919       .  S
Br116       C235   1.923       .  S
C117        C118   1.408       .  A
C117        C122   1.401       .  A
C117        H124   1.083       .  S
C118        C245   1.418       .  A
C119        C120   1.398       .  A
C119        C244   1.418       .  A
C119       Br126   1.925       .  S
C120        C247   1.407       .  A
C120        H125   1.083       .  S
C121        C122   1.415       .  A
C121        C246   1.407       .  A
C122       Br123   1.923       .  S
O127       Ni385   1.918   1_545  S
O127        C652   1.267       .  A
O128       Ni151   1.904       .  S
O128        C137   1.267       .  A
O129       Ni133   1.895       .  S
O129       Ni901   1.918       .  S
O129        H152   0.967       .  S
C130        O147   1.281       .  A
C130        C237   1.480       .  S
O131       Ni402   1.933       .  S
O131        C641   1.271   1_455  A
O132       Ni402   1.902       .  S
O132        C134   1.269       .  A
Ni133       O379   1.917       .  S
Ni133       O136   1.920       .  S
Ni133       O390   1.905       .  S
C134        C227   1.472       .  S
O135       Ni151   1.926       .  S
O135        C141   1.277   1_556  A
C137        O635   1.271       .  A
C137        C169   1.457       .  S
O138       Ni385   1.904   1_545  S
O138        C140   1.268       .  A
O139       Ni150   1.921       .  S
C140        C217   1.485       .  S
C141        C247   1.491       .  S
H142        O143   0.966       .  S
O143       Ni907   1.910   1_445  S
O143       Ni150   1.894       .  S
O144       Ni397   1.922       .  S
Ni145       O396   1.923   1_545  S
Ni145       O149   1.921       .  S
Ni145       O147   1.924       .  S
Ni145       O885   1.918   1_445  S
O146       Ni403   1.918   1_545  S
C148        O631   1.267   1_455  A
C148        O149   1.270       .  A
C148        C177   1.459       .  S
Ni150       O383   1.933   1_545  S
Ni150       O384   1.902   1_545  S
Ni151       O398   1.918       .  S
Ni151       O899   1.910       .  S
O153       Ni161   1.913       .  S
O154       Ni161   1.912       .  S
O155       Ni161   1.909       .  S
O156       Ni161   1.910       .  S
O157       Ni162   1.906       .  S
O157        C166   1.279   1_556  A
O158       Ni162   1.910       .  S
O158        C165   1.280       .  A
O159       Ni162   1.916       .  S
O159        C164   1.282   1_556  A
O160       Ni162   1.916       .  S
O160        C163   1.281       .  A
C164        C244   1.493       .  S
C165        C224   1.474       .  S
C167        C202   1.506       .  S
C167        N168   1.359       .  A
C167        N172   1.361       .  A
N168        C169   1.365       .  A
C169        N422   1.362       .  A
N170        C421   1.362   1_545  A
N170        C171   1.355       .  A
C171        C199   1.504       .  S
C171        N424   1.360       .  A
N172        C423   1.360       .  A
C173        C200   1.505       .  S
C173        N174   1.363       .  A
C173        N178   1.360       .  A
N174        C427   1.361   1_545  A
C175        C201   1.503       .  S
C175        N426   1.361       .  A
C175        N176   1.355       .  A
N176        C429   1.363       .  A
C177        N428   1.363   1_545  A
C177        N178   1.366       .  A
N179        C688   1.351       .  A
N179        C183   1.351       .  A
N179        H211   1.045       .  S
N180        C187   1.347       .  A
N180        C188   1.348       .  A
N181        C690   1.350       .  A
N181        C185   1.351       .  A
N181        H212   1.045       .  S
N182        C189   1.348       .  A
N182        C190   1.347       .  A
C183        C191   1.381       .  A
C183        C199   1.408       .  A
C184        N683   1.351       .  A
C184        C200   1.407   1_655  A
C184        C192   1.380       .  A
C185        C193   1.381       .  A
C185        C202   1.408       .  A
C186        N685   1.350       .  A
C186        C201   1.407   1_655  A
C186        C698   1.381       .  A
C187        C199   1.417       .  A
C187        C195   1.389       .  A
C188        C202   1.415       .  A
C188        C196   1.388       .  A
C189        C197   1.387       .  A
C189        C200   1.415       .  A
C190        C198   1.388       .  A
C190        C201   1.416       .  A
C191        C696   1.376       .  A
C191        H203   1.081       .  S
C192        C695   1.376       .  A
C192        H204   1.080       .  S
C193        C194   1.377       .  A
C193        H205   1.081       .  S
C194        C690   1.381       .  A
C194        H710   1.080       .  S
C195        C196   1.390       .  A
C195        H207   1.080       .  S
C196        H208   1.080       .  S
C197        C198   1.393       .  A
C197        H209   1.081       .  S
C198        H210   1.081       .  S
H206        C698   1.080       .  S
C213        C214   1.406       .  A
C213        C218   1.397       .  A
C213        H220   1.084       .  S
C215        C216   1.395       .  A
C215       Br222   1.919       .  S
C216        H221   1.083       .  S
C217        C218   1.414       .  A
C218       Br219   1.924       .  S
C223        C224   1.408   1_554  A
C223        C228   1.396       .  A
C223        H230   1.084       .  S
C224        C225   1.407       .  A
C225        C226   1.399       .  A
C225       Br232   1.919       .  S
C226        C227   1.408       .  A
C226        H231   1.084       .  S
C227        C228   1.405   1_556  A
C228       Br229   1.919       .  S
C233        C234   1.406       .  A
C233        C238   1.403       .  A
C233        H240   1.083       .  S
C234        C235   1.416       .  A
C235        C236   1.395       .  A
C236        C237   1.403       .  A
C236        H241   1.084       .  S
C237        C238   1.414       .  A
C238       Br491   1.919       .  S
Br239       C490   1.919       .  S
C243        C244   1.409   1_556  A
C243        C248   1.401       .  A
C243        H250   1.083       .  S
C245        C246   1.398       .  A
C245       Br252   1.925       .  S
C246        H251   1.083       .  S
C247        C248   1.415   1_554  A
C248       Br249   1.923       .  S
O253        C778   1.267       .  A
O254       Ni277   1.903   1_545  S
O254        C263   1.266   1_545  A
O255       Ni259   1.894       .  S
O255       Ni403   1.893   1_554  S
O255       Ni523   1.918   1_565  S
O255        H278   0.967       .  S
C256        O273   1.282   1_556  A
C256        O391   1.278       .  A
C256        C363   1.481       .  S
O257        C767   1.271   1_455  A
O258        C260   1.269       .  A
Ni259       O262   1.920       .  S
C260        O396   1.271       .  A
C260        C353   1.472       .  S
O261       Ni277   1.924       .  S
O261        C267   1.276       .  A
O262        C393   1.280       .  A
C263        O761   1.271       .  A
C263        C295   1.457       .  S
O264        C266   1.268       .  A
O265       Ni276   1.922       .  S
O265        C382   1.278       .  A
C266        O398   1.270   1_554  A
C266        C343   1.485       .  S
C267        O388   1.280       .  A
C267        C373   1.491       .  S
H268        O269   0.966       .  S
O269       Ni529   1.910   1_455  S
O269       Ni397   1.904       .  S
O269       Ni276   1.894       .  S
O270        C386   1.271   1_554  A
Ni271       O275   1.921       .  S
Ni271       O273   1.924       .  S
Ni271       O507   1.918   1_455  S
Ni271       O395   1.904   1_554  S
O272        C392   1.270       .  A
C274        O757   1.267   1_455  A
C274        O275   1.270       .  A
C274        C303   1.459       .  S
Ni277       O381   1.893       .  S
Ni277       O521   1.909   1_565  S
O279       Ni287   1.913       .  S
O279        C415   1.281   1_554  A
O280       Ni287   1.912       .  S
O280        C416   1.279       .  A
O281       Ni287   1.908       .  S
O281        C417   1.280   1_554  A
O282       Ni287   1.909       .  S
O282        C418   1.280       .  A
O283       Ni288   1.907       .  S
O283        C292   1.280       .  A
O284       Ni288   1.911       .  S
O284        C291   1.280       .  A
O285       Ni288   1.917       .  S
O285        C290   1.282       .  A
O286       Ni288   1.917       .  S
O286        C289   1.282       .  A
Ni287      Ni414   2.386   1_554  S
Ni288      Ni413   2.386       .  S
C289        O405   1.281       .  A
C289        C486   1.484       .  S
C290        O406   1.279       .  A
C290        C370   1.493       .  S
C291        O407   1.280       .  A
C291        C350   1.474       .  S
C292        O408   1.280       .  A
C292        C466   1.471       .  S
C293        C328   1.506       .  S
C293        N294   1.359       .  A
C293        N298   1.361   1_565  A
N294        C295   1.365       .  A
N296        C297   1.355       .  A
C297        C325   1.504       .  S
C299        C326   1.505       .  S
C299        N300   1.363       .  A
C299        N304   1.360       .  A
C301        C327   1.503       .  S
C301        N302   1.355       .  A
C303        N304   1.366       .  A
N305        C814   1.351       .  A
N305        C309   1.351       .  A
N305        H337   1.045       .  S
N306        C313   1.347       .  A
N306        C314   1.347       .  A
N307        C816   1.350       .  A
N307        C311   1.351       .  A
N307        H338   1.045       .  S
N308        C315   1.348       .  A
N308        C316   1.347       .  A
C309        C317   1.381       .  A
C309        C325   1.407       .  A
C310        N809   1.351       .  A
C310        C326   1.407   1_655  A
C310        C318   1.381       .  A
C311        C319   1.381       .  A
C311        C328   1.408       .  A
C312        N811   1.350       .  A
C312        C327   1.407   1_655  A
C312        C824   1.381       .  A
C313        C325   1.416       .  A
C313        C321   1.389       .  A
C314        C328   1.415       .  A
C314        C322   1.388       .  A
C315        C323   1.387       .  A
C315        C326   1.415       .  A
C316        C324   1.388       .  A
C316        C327   1.416       .  A
C317        C822   1.376       .  A
C317        H329   1.081       .  S
C318        C821   1.376       .  A
C318        H330   1.080       .  S
C319        C320   1.376       .  A
C319        H331   1.081       .  S
C320        C816   1.381       .  A
C320        H836   1.080       .  S
C321        C322   1.391       .  A
C321        H333   1.080       .  S
C322        H334   1.080       .  S
C323        C324   1.393       .  A
C323        H335   1.081       .  S
C324        H336   1.081       .  S
H332        C824   1.080       .  S
C339        C340   1.406   1_556  A
C339        C344   1.397       .  A
C339        H346   1.084       .  S
C340        C418   1.470       .  S
C340        C467   1.402       .  A
C341        C466   1.402       .  A
C341        C342   1.395       .  A
C341       Br348   1.919       .  S
C342        C469   1.413       .  A
C342        H347   1.083       .  S
C343        C468   1.413       .  A
C343        C344   1.414   1_554  A
C344       Br345   1.924       .  S
C349        C350   1.409       .  A
C349        C354   1.396       .  A
C349        H356   1.084       .  S
C350        C351   1.406       .  A
C351        C352   1.399       .  A
C351       Br358   1.918       .  S
C352        C353   1.408       .  A
C352        H357   1.084       .  S
C353        C354   1.405       .  A
C354       Br355   1.919       .  S
C359        C360   1.406   1_554  A
C359        C364   1.403       .  A
C359        H366   1.083       .  S
C360        C415   1.484       .  S
C360        C361   1.416       .  A
C361        C362   1.396       .  A
C361       Br494   1.923       .  S
C362        C363   1.403       .  A
C362        H367   1.084       .  S
C363        C364   1.413   1_556  A
Br368       C487   1.923       .  S
C369        C370   1.409       .  A
C369        C374   1.402       .  A
C369        H376   1.083       .  S
C370        C497   1.419       .  A
C371        C496   1.419       .  A
C371        C372   1.398       .  A
C371       Br378   1.925       .  S
C372        C499   1.406       .  A
C372        H377   1.083       .  S
C373        C498   1.406       .  A
C373        C374   1.416       .  A
C374       Br375   1.924       .  S
O379        C904   1.267       .  A
O380       Ni403   1.904   1_545  S
O380        C389   1.267   1_545  A
O381       Ni385   1.894       .  S
O381       Ni649   1.918   1_565  S
O381        H404   0.967       .  S
C382        O399   1.281       .  A
C382        C489   1.481       .  S
O383        C893   1.271   1_455  A
O384        C386   1.269       .  A
Ni385       O388   1.921       .  S
C386        C479   1.472       .  S
O387       Ni403   1.925       .  S
O387        C393   1.276   1_556  A
C389        O887   1.271       .  A
C389        C421   1.457       .  S
O390        C392   1.268       .  A
O391       Ni402   1.922       .  S
C392        C469   1.485       .  S
C393        C499   1.491       .  S
H394        O395   0.966       .  S
O395       Ni655   1.910   1_455  S
O395       Ni402   1.894       .  S
Ni397       O401   1.921       .  S
Ni397       O399   1.924       .  S
Ni397       O633   1.918   1_455  S
C400        O883   1.267   1_455  A
C400        O401   1.270       .  A
C400        C429   1.459       .  S
Ni403       O647   1.910   1_565  S
O405       Ni413   1.914       .  S
O406       Ni413   1.912       .  S
O407       Ni413   1.907       .  S
O408       Ni413   1.909       .  S
O409       Ni414   1.907       .  S
O409        C418   1.280   1_556  A
O410       Ni414   1.911       .  S
O410        C417   1.280       .  A
O411       Ni414   1.917       .  S
O411        C416   1.282   1_556  A
O412       Ni414   1.917       .  S
O412        C415   1.282       .  A
C416        C496   1.493       .  S
C417        C476   1.474       .  S
C419        C454   1.506       .  S
C419        N420   1.359       .  A
C419        N424   1.361   1_565  A
N420        C421   1.365       .  A
N422        C423   1.355       .  A
C423        C451   1.504       .  S
C425        C452   1.505       .  S
C425        N426   1.363       .  A
C425        N430   1.360       .  A
C427        C453   1.503       .  S
C427        N428   1.355       .  A
C429        N430   1.366       .  A
N431        C940   1.351       .  A
N431        C435   1.351       .  A
N431        H463   1.045       .  S
N432        C439   1.347       .  A
N432        C440   1.347       .  A
N433        C942   1.350       .  A
N433        C437   1.351       .  A
N433        H464   1.045       .  S
N434        C441   1.348       .  A
N434        C442   1.347       .  A
C435        C443   1.381       .  A
C435        C451   1.407       .  A
C436        N935   1.351       .  A
C436        C452   1.407   1_655  A
C436        C444   1.381       .  A
C437        C445   1.381       .  A
C437        C454   1.408       .  A
C438        N937   1.350       .  A
C438        C453   1.407   1_655  A
C438        C950   1.381       .  A
C439        C451   1.416       .  A
C439        C447   1.389       .  A
C440        C454   1.415       .  A
C440        C448   1.388       .  A
C441        C449   1.387       .  A
C441        C452   1.415       .  A
C442        C450   1.388       .  A
C442        C453   1.416       .  A
C443        C948   1.376       .  A
C443        H455   1.081       .  S
C444        C947   1.376       .  A
C444        H456   1.080       .  S
C445        C446   1.376       .  A
C445        H457   1.081       .  S
C446        C942   1.381       .  A
C446        H962   1.080       .  S
C447        C448   1.391       .  A
C447        H459   1.080       .  S
C448        H460   1.080       .  S
C449        C450   1.393       .  A
C449        H461   1.081       .  S
C450        H462   1.081       .  S
H458        C950   1.080       .  S
C465        C466   1.406       .  A
C465        C470   1.397       .  A
C465        H472   1.084       .  S
C467        C468   1.395       .  A
C467       Br474   1.919       .  S
C468        H473   1.083       .  S
C469        C470   1.414       .  A
C470       Br471   1.924       .  S
C475        C476   1.409   1_554  A
C475        C480   1.396       .  A
C475        H482   1.084       .  S
C476        C477   1.406       .  A
C477        C478   1.399       .  A
C477       Br484   1.919       .  S
C478        C479   1.408       .  A
C478        H483   1.084       .  S
C479        C480   1.405   1_556  A
C480       Br481   1.919       .  S
C485        C486   1.406       .  A
C485        C490   1.403       .  A
C485        H492   1.083       .  S
C486        C487   1.416       .  A
C487        C488   1.395       .  A
C488        C489   1.403       .  A
C488        H493   1.084       .  S
C489        C490   1.414       .  A
C495        C496   1.409   1_556  A
C495        C500   1.402       .  A
C495        H502   1.083       .  S
C497        C498   1.398       .  A
C497       Br504   1.925       .  S
C498        H503   1.083       .  S
C499        C500   1.415   1_554  A
C500       Br501   1.924       .  S
O505       Ni763   1.918   1_545  S
O506       Ni529   1.904       .  S
O506        C515   1.267       .  A
O507       Ni511   1.894       .  S
O507       Ni655   1.893   1_554  S
O507        H530   0.967   1_655  S
C508        O525   1.281   1_556  A
C508        O643   1.278       .  A
C508        C615   1.480       .  S
O509       Ni780   1.933       .  S
O510       Ni780   1.902       .  S
O510        C512   1.269       .  A
Ni511       O757   1.917       .  S
Ni511       O514   1.920       .  S
Ni511       O768   1.904       .  S
C512        O648   1.271       .  A
C512        C605   1.472       .  S
O513       Ni529   1.925       .  S
O513        C519   1.276       .  A
O514        C645   1.280       .  A
C515        C547   1.457       .  S
O516       Ni763   1.904   1_545  S
O516        C518   1.268       .  A
O517       Ni528   1.921       .  S
O517        C634   1.278       .  A
C518        O650   1.270   1_554  A
C518        C595   1.485       .  S
C519        O640   1.280       .  A
C519        C625   1.491       .  S
H520        O521   0.966       .  S
O521       Ni649   1.905       .  S
O521       Ni528   1.894       .  S
O522       Ni775   1.923       .  S
O522        C638   1.271   1_554  A
Ni523       O774   1.922   1_545  S
Ni523       O527   1.921       .  S
Ni523       O525   1.924       .  S
Ni523       O647   1.904   1_554  S
O524       Ni781   1.918   1_545  S
O524        C644   1.270       .  A
C526        O527   1.270       .  A
C526        C555   1.459       .  S
Ni528       O761   1.933   1_545  S
Ni528       O762   1.902   1_545  S
Ni529       O776   1.919       .  S
Ni529       O633   1.893       .  S
O531       Ni539   1.913       .  S
O531        C667   1.281   1_554  A
O532       Ni539   1.912       .  S
O532        C668   1.279       .  A
O533       Ni539   1.908       .  S
O533        C669   1.280   1_554  A
O534       Ni539   1.910       .  S
O534        C670   1.280       .  A
O535       Ni540   1.906       .  S
O535        C544   1.280       .  A
O536       Ni540   1.911       .  S
O536        C543   1.280       .  A
O537       Ni540   1.916       .  S
O537        C542   1.282       .  A
O538       Ni540   1.916       .  S
O538        C541   1.281       .  A
Ni539      Ni666   2.386   1_554  S
Ni540      Ni665   2.386       .  S
C541        O657   1.281       .  A
C541        C738   1.483       .  S
C542        O658   1.279       .  A
C542        C622   1.492       .  S
C543        O659   1.280       .  A
C543        C602   1.474       .  S
C544        O660   1.280       .  A
C544        C718   1.470       .  S
C545        C580   1.506       .  S
C545        N546   1.359       .  A
C545        N550   1.361       .  A
N546        C547   1.365       .  A
C547        N800   1.362       .  A
N548        C799   1.362   1_545  A
N548        C549   1.355       .  A
C549        C577   1.504       .  S
C549        N802   1.360       .  A
N550        C801   1.360       .  A
C551        C578   1.505       .  S
C551        N552   1.363       .  A
C551        N556   1.360       .  A
N552        C805   1.361   1_545  A
C553        C579   1.503       .  S
C553        N804   1.361       .  A
C553        N554   1.355       .  A
N554        C807   1.363       .  A
C555        N806   1.364   1_545  A
C555        N556   1.366       .  A
N557        C561   1.351       .  A
N557        H589   1.045   1_655  S
N558        C565   1.347       .  A
N558        C566   1.348       .  A
N559        C563   1.351       .  A
N559        H590   1.045   1_655  S
N560        C567   1.348       .  A
N560        C568   1.347       .  A
C561        C569   1.381       .  A
C561        C577   1.408       .  A
C562        C578   1.407       .  A
C562        C570   1.381       .  A
C563        C571   1.381       .  A
C563        C580   1.408       .  A
C564        C579   1.407       .  A
C565        C577   1.417       .  A
C565        C573   1.389   1_655  A
C566        C580   1.415       .  A
C566        C574   1.388   1_655  A
C567        C575   1.387       .  A
C567        C578   1.415       .  A
C568        C576   1.388       .  A
C568        C579   1.416       .  A
C569        H581   1.081       .  S
C570        H582   1.080       .  S
C571        C572   1.377       .  A
C571        H583   1.081       .  S
C573        C574   1.391       .  A
C573        H585   1.080       .  S
C574        H586   1.080       .  S
C575        C576   1.393       .  A
C575        H587   1.081       .  S
C576        H588   1.081       .  S
C591        C592   1.406   1_556  A
C591        C596   1.397       .  A
C591        H598   1.084       .  S
C592        C670   1.470       .  S
C592        C719   1.402       .  A
C593        C718   1.402       .  A
C593        C594   1.395       .  A
C593       Br600   1.919       .  S
C594        C721   1.413       .  A
C594        H599   1.083       .  S
C595        C720   1.413       .  A
C595        C596   1.414   1_554  A
C596       Br597   1.924       .  S
C601        C602   1.408       .  A
C601        C606   1.396       .  A
C601        H608   1.084       .  S
C602        C603   1.406       .  A
C603        C604   1.399       .  A
C603       Br610   1.919       .  S
C604        C605   1.409       .  A
C604        H609   1.084       .  S
C605        C606   1.405       .  A
C606       Br607   1.919       .  S
C611        C612   1.406   1_554  A
C611        C616   1.403       .  A
C611        H618   1.083       .  S
C612        C667   1.483       .  S
C612        C613   1.416       .  A
C613        C614   1.395       .  A
C613       Br746   1.923       .  S
C614        C615   1.403       .  A
C614        H619   1.084       .  S
C615        C616   1.414   1_556  A
C616       Br869   1.919       .  S
Br617       C868   1.919       .  S
Br620       C739   1.923       .  S
C621        C622   1.408       .  A
C621        C626   1.401       .  A
C621        H628   1.083       .  S
C622        C749   1.419       .  A
C623        C748   1.418       .  A
C623        C624   1.398       .  A
C623       Br630   1.925       .  S
C624        C751   1.406       .  A
C624        H629   1.083       .  S
C625        C750   1.406       .  A
C625        C626   1.416       .  A
C626       Br627   1.924       .  S
O631       Ni889   1.918   1_545  S
O632       Ni655   1.904       .  S
O632        C641   1.267       .  A
O633       Ni637   1.895       .  S
O633        H656   0.967   1_655  S
C634        O651   1.281       .  A
C634        C741   1.480       .  S
O635       Ni906   1.933       .  S
O636       Ni906   1.902       .  S
O636        C638   1.269       .  A
Ni637       O883   1.917       .  S
Ni637       O640   1.920       .  S
Ni637       O894   1.904       .  S
C638        C731   1.472       .  S
O639       Ni655   1.925       .  S
O639        C645   1.276   1_556  A
C641        C673   1.457       .  S
O642       Ni889   1.904   1_545  S
O642        C644   1.268       .  A
O643       Ni654   1.921       .  S
C644        C721   1.485       .  S
C645        C751   1.491       .  S
H646        O647   0.966       .  S
O647       Ni654   1.894       .  S
O648       Ni901   1.923       .  S
Ni649       O900   1.922   1_545  S
Ni649       O653   1.921       .  S
Ni649       O651   1.924       .  S
O650       Ni907   1.918   1_545  S
C652        O653   1.270       .  A
C652        C681   1.459       .  S
Ni654       O887   1.933   1_545  S
Ni654       O888   1.902   1_545  S
Ni655       O902   1.919       .  S
O657       Ni665   1.913       .  S
O658       Ni665   1.912       .  S
O659       Ni665   1.908       .  S
O660       Ni665   1.910       .  S
O661       Ni666   1.906       .  S
O661        C670   1.280   1_556  A
O662       Ni666   1.911       .  S
O662        C669   1.280       .  A
O663       Ni666   1.916       .  S
O663        C668   1.282   1_556  A
O664       Ni666   1.916       .  S
O664        C667   1.281       .  A
C668        C748   1.493       .  S
C669        C728   1.474       .  S
C671        C706   1.506       .  S
C671        N672   1.359       .  A
C671        N676   1.361       .  A
N672        C673   1.365       .  A
C673        N926   1.362       .  A
N674        C925   1.362   1_545  A
N674        C675   1.355       .  A
C675        C703   1.504       .  S
C675        N928   1.360       .  A
N676        C927   1.360       .  A
C677        C704   1.505       .  S
C677        N678   1.363       .  A
C677        N682   1.360       .  A
N678        C931   1.361   1_545  A
C679        C705   1.503       .  S
C679        N930   1.361       .  A
C679        N680   1.355       .  A
N680        C933   1.363       .  A
C681        N932   1.363   1_545  A
C681        N682   1.366       .  A
N683        C687   1.351       .  A
N683        H715   1.045   1_655  S
N684        C691   1.346       .  A
N684        C692   1.348       .  A
N685        C689   1.351       .  A
N685        H716   1.045   1_655  S
N686        C693   1.348       .  A
N686        C694   1.347       .  A
C687        C695   1.381       .  A
C687        C703   1.407       .  A
C688        C704   1.407       .  A
C688        C696   1.381       .  A
C689        C697   1.381       .  A
C689        C706   1.408       .  A
C690        C705   1.407       .  A
C691        C703   1.417       .  A
C691        C699   1.389   1_655  A
C692        C706   1.415       .  A
C692        C700   1.388   1_655  A
C693        C701   1.387       .  A
C693        C704   1.415       .  A
C694        C702   1.388       .  A
C694        C705   1.416       .  A
C695        H707   1.081       .  S
C696        H708   1.080       .  S
C697        C698   1.377       .  A
C697        H709   1.081       .  S
C699        C700   1.391       .  A
C699        H711   1.080       .  S
C700        H712   1.080       .  S
C701        C702   1.393       .  A
C701        H713   1.081       .  S
C702        H714   1.081       .  S
C717        C718   1.406       .  A
C717        C722   1.397       .  A
C717        H724   1.084       .  S
C719        C720   1.395       .  A
C719       Br726   1.919       .  S
C720        H725   1.083       .  S
C721        C722   1.414       .  A
C722       Br723   1.924       .  S
C727        C728   1.408   1_554  A
C727        C732   1.396       .  A
C727        H734   1.084       .  S
C728        C729   1.406       .  A
C729        C730   1.399       .  A
C729       Br736   1.919       .  S
C730        C731   1.408       .  A
C730        H735   1.084       .  S
C731        C732   1.405   1_556  A
C732       Br733   1.919       .  S
C737        C738   1.406       .  A
C737        C742   1.403       .  A
C737        H744   1.083       .  S
C738        C739   1.416       .  A
C739        C740   1.395       .  A
C740        C741   1.403       .  A
C740        H745   1.084       .  S
C741        C742   1.414       .  A
C742       Br995   1.919       .  S
Br743       C994   1.919       .  S
C747        C748   1.408   1_556  A
C747        C752   1.401       .  A
C747        H754   1.083       .  S
C749        C750   1.398       .  A
C749       Br756   1.925       .  S
C750        H755   1.083       .  S
C751        C752   1.416   1_554  A
C752       Br753   1.923       .  S
O758       Ni781   1.904   1_545  S
O758        C767   1.267   1_545  A
O759       Ni763   1.895       .  S
O759       Ni907   1.893   1_554  S
O759        H782   0.967   1_655  S
C760        O777   1.282   1_556  A
C760        O895   1.278       .  A
C760        C867   1.481       .  S
O762        C764   1.269       .  A
Ni763       O766   1.920       .  S
C764        O900   1.271       .  A
C764        C857   1.472       .  S
O765       Ni781   1.925       .  S
O765        C771   1.276       .  A
O766        C897   1.280       .  A
C767        C799   1.457       .  S
O768        C770   1.268       .  A
O769       Ni780   1.922       .  S
O769        C886   1.278       .  A
C770        O902   1.270   1_554  A
C770        C847   1.485       .  S
C771        O892   1.280       .  A
C771        C877   1.491       .  S
H772        O773   0.966       .  S
O773       Ni901   1.904       .  S
O773       Ni780   1.894       .  S
O774        C890   1.271   1_554  A
Ni775       O779   1.921       .  S
Ni775       O777   1.924       .  S
Ni775       O899   1.904   1_554  S
O776        C896   1.270       .  A
C778        O779   1.270       .  A
C778        C807   1.459       .  S
Ni781       O885   1.893       .  S
O783       Ni791   1.914       .  S
O783        C919   1.281   1_554  A
O784       Ni791   1.913       .  S
O784        C920   1.279       .  A
O785       Ni791   1.908       .  S
O785        C921   1.280   1_554  A
O786       Ni791   1.909       .  S
O786        C922   1.280       .  A
O787       Ni792   1.907       .  S
O787        C796   1.280       .  A
O788       Ni792   1.910       .  S
O788        C795   1.280       .  A
O789       Ni792   1.916       .  S
O789        C794   1.282       .  A
O790       Ni792   1.917       .  S
O790        C793   1.281       .  A
Ni791      Ni918   2.386   1_554  S
Ni792      Ni917   2.386       .  S
C793        O909   1.281       .  A
C793        C990   1.484       .  S
C794        O910   1.279       .  A
C794        C874   1.493       .  S
C795        O911   1.280       .  A
C795        C854   1.474       .  S
C796        O912   1.280       .  A
C796        C970   1.470       .  S
C797        C832   1.506       .  S
C797        N798   1.359       .  A
C797        N802   1.361   1_565  A
N798        C799   1.365       .  A
N800        C801   1.355       .  A
C801        C829   1.504       .  S
C803        C830   1.505       .  S
C803        N804   1.363       .  A
C803        N808   1.360       .  A
C805        C831   1.503       .  S
C805        N806   1.355       .  A
C807        N808   1.366       .  A
N809        C813   1.351       .  A
N809        H841   1.045   1_655  S
N810        C817   1.347       .  A
N810        C818   1.347       .  A
N811        C815   1.351       .  A
N811        H842   1.045   1_655  S
N812        C819   1.348       .  A
N812        C820   1.347       .  A
C813        C821   1.381       .  A
C813        C829   1.407       .  A
C814        C830   1.407       .  A
C814        C822   1.381       .  A
C815        C823   1.381       .  A
C815        C832   1.408       .  A
C816        C831   1.407       .  A
C817        C829   1.416       .  A
C817        C825   1.389       .  A
C818        C832   1.415       .  A
C818        C826   1.388       .  A
C819        C827   1.387       .  A
C819        C830   1.415       .  A
C820        C828   1.388       .  A
C820        C831   1.416       .  A
C821        H833   1.081       .  S
C822        H834   1.080       .  S
C823        C824   1.377       .  A
C823        H835   1.081       .  S
C825        C826   1.391       .  A
C825        H837   1.080   1_655  S
C826        H838   1.080   1_655  S
C827        C828   1.393       .  A
C827        H839   1.081       .  S
C828        H840   1.081       .  S
C843        C844   1.406   1_556  A
C843        C848   1.397       .  A
C843        H850   1.084       .  S
C844        C922   1.470       .  S
C844        C971   1.402       .  A
C845        C970   1.402       .  A
C845        C846   1.395       .  A
C845       Br852   1.919       .  S
C846        C973   1.413       .  A
C846        H851   1.083       .  S
C847        C972   1.413       .  A
C847        C848   1.414   1_554  A
C848       Br849   1.923       .  S
C853        C854   1.409       .  A
C853        C858   1.396       .  A
C853        H860   1.084       .  S
C854        C855   1.406       .  A
C855        C856   1.399       .  A
C855       Br862   1.919       .  S
C856        C857   1.408       .  A
C856        H861   1.084       .  S
C857        C858   1.405       .  A
C858       Br859   1.919       .  S
C863        C864   1.406   1_554  A
C863        C868   1.403       .  A
C863        H870   1.083       .  S
C864        C919   1.484       .  S
C864        C865   1.416       .  A
C865        C866   1.396       .  A
C865       Br998   1.923       .  S
C866        C867   1.403       .  A
C866        H871   1.084       .  S
C867        C868   1.414   1_556  A
Br872       C991   1.923       .  S
C873        C874   1.409       .  A
C873        C878   1.402       .  A
C873        H880   1.083       .  S
C874       C1001   1.419       .  A
C875       C1000   1.418       .  A
C875        C876   1.398       .  A
C875       Br882   1.925       .  S
C876       C1003   1.406       .  A
C876        H881   1.083       .  S
C877       C1002   1.406       .  A
C877        C878   1.416       .  A
C878       Br879   1.924       .  S
O884       Ni907   1.904   1_545  S
O884        C893   1.267   1_545  A
O885       Ni889   1.895       .  S
O885        H908   0.967   1_655  S
C886        O903   1.281       .  A
C886        C993   1.481       .  S
O888        C890   1.269       .  A
Ni889       O892   1.920       .  S
C890        C983   1.472       .  S
O891       Ni907   1.925       .  S
O891        C897   1.276   1_556  A
C893        C925   1.457       .  S
O894        C896   1.268       .  A
O895       Ni906   1.922       .  S
C896        C973   1.485       .  S
C897       C1003   1.491       .  S
H898        O899   0.966       .  S
O899       Ni906   1.894       .  S
Ni901       O905   1.921       .  S
Ni901       O903   1.924       .  S
C904        O905   1.270       .  A
C904        C933   1.459       .  S
O909       Ni917   1.914       .  S
O910       Ni917   1.912       .  S
O911       Ni917   1.908       .  S
O912       Ni917   1.909       .  S
O913       Ni918   1.907       .  S
O913        C922   1.280   1_556  A
O914       Ni918   1.910       .  S
O914        C921   1.280       .  A
O915       Ni918   1.916       .  S
O915        C920   1.282   1_556  A
O916       Ni918   1.917       .  S
O916        C919   1.282       .  A
C920       C1000   1.493       .  S
C921        C980   1.474       .  S
C923        C958   1.506       .  S
C923        N924   1.359       .  A
C923        N928   1.361   1_565  A
N924        C925   1.365       .  A
N926        C927   1.355       .  A
C927        C955   1.504       .  S
C929        C956   1.505       .  S
C929        N930   1.363       .  A
C929        N934   1.360       .  A
C931        C957   1.503       .  S
C931        N932   1.355       .  A
C933        N934   1.366       .  A
N935        C939   1.351       .  A
N935        H967   1.045   1_655  S
N936        C943   1.347       .  A
N936        C944   1.347       .  A
N937        C941   1.351       .  A
N937        H968   1.045   1_655  S
N938        C945   1.348       .  A
N938        C946   1.347       .  A
C939        C947   1.381       .  A
C939        C955   1.407       .  A
C940        C956   1.407       .  A
C940        C948   1.381       .  A
C941        C949   1.381       .  A
C941        C958   1.408       .  A
C942        C957   1.407       .  A
C943        C955   1.416       .  A
C943        C951   1.389   1_655  A
C944        C958   1.415       .  A
C944        C952   1.388       .  A
C945        C953   1.387       .  A
C945        C956   1.415       .  A
C946        C954   1.388       .  A
C946        C957   1.416       .  A
C947        H959   1.081       .  S
C948        H960   1.080       .  S
C949        C950   1.377       .  A
C949        H961   1.081       .  S
C951        C952   1.391   1_455  A
C951        H963   1.080       .  S
C952        H964   1.080   1_655  S
C953        C954   1.393       .  A
C953        H965   1.081       .  S
C954        H966   1.081       .  S
C969        C970   1.406       .  A
C969        C974   1.397       .  A
C969        H976   1.084       .  S
C971        C972   1.395       .  A
C971       Br978   1.919       .  S
C972        H977   1.083       .  S
C973        C974   1.414       .  A
C974       Br975   1.924       .  S
C979        C980   1.409   1_554  A
C979        C984   1.396       .  A
C979        H986   1.084       .  S
C980        C981   1.406       .  A
C981        C982   1.399       .  A
C981       Br988   1.919       .  S
C982        C983   1.408       .  A
C982        H987   1.084       .  S
C983        C984   1.405   1_556  A
C984       Br985   1.919       .  S
C989        C990   1.406       .  A
C989        C994   1.403       .  A
C989        H996   1.083       .  S
C990        C991   1.416       .  A
C991        C992   1.395       .  A
C992        C993   1.403       .  A
C992        H997   1.084       .  S
C993        C994   1.414       .  A
C999       C1000   1.409   1_556  A
C999       C1004   1.402       .  A
C999       H1006   1.083       .  S
C1001      C1002   1.398       .  A
C1001     Br1008   1.925       .  S
C1002      H1007   1.083       .  S
C1003      C1004   1.415   1_554  A
C1004     Br1005   1.924       .  S
