geometry optimzed in LAMMPS
_audit_creation_date              2020-11-30 
_audit_creation_method            'lammps2cif' 
_symmetry_space_group_name_H-M    'P1' 
_symmetry_Int_Tables_number       1 
_symmetry_cell_setting            triclinic 
loop_ 
_symmetry_equiv_pos_as_xyz 
  x,y,z 
_cell_length_a                    26.074598164978827 
_cell_length_b                    26.145776640980785 
_cell_length_c                    24.91899036661366 
_cell_angle_alpha                 90.3723328024675 
_cell_angle_beta                  90.62705798119784 
_cell_angle_gamma                 90.37733489487329 
loop_ 
_atom_site_label 
_atom_site_type_symbol 
_atom_site_fract_x 
_atom_site_fract_y 
_atom_site_fract_z 
_atom_site_charge 
O1          O  0.41054460  0.00747827  0.53866061    -0.88190
C2          C  0.54713716  0.02262255  0.61412960     0.87830
Mg3        Mg  0.38928559  0.94091426  0.49539321     1.58150
O4          O  0.53746678  0.08927297  0.49382991    -0.87930
O5          O  0.42070362  0.08900256  0.51990930    -0.75260
C6          C  0.59759929  0.87941638  0.35890815     0.92890
O7          O  0.47881567  0.92202563  0.59602076    -0.75070
O8          O  0.55445076  0.86130110  0.37284670    -0.82580
Mg9        Mg  0.43973567  0.99759069  0.61839964     1.57960
C10         C  0.64753528  0.09196942  0.38207083     0.92810
O11         O  0.39803686  0.07140419  0.64386321    -0.80840
H12         H  0.50209803  0.14107031  0.44795692    -0.06180
C13         C  0.60779106  0.95298959  0.48702317     0.87750
O14         O  0.41472948  0.97882042  0.41678787    -0.75350
O15         O  0.50614436  0.03902552  0.59565525    -0.88110
O16         O  0.64027377  0.10178733  0.43155275    -0.80920
C17         C  0.61612537  0.14769705  0.59919754     0.92920
C18         C  0.40495767  0.11977846  0.64677397     0.92780
Mg19       Mg  0.56514879  0.00195944  0.38675626     1.57950
O20         O  0.60846140  0.92692825  0.36444442    -0.80840
O21         O  0.52567393  0.07824586  0.40698338    -0.75090
O22         O  0.56864322  0.14130505  0.60954139    -0.80930
O23         O  0.37286261  0.94779249  0.64582211    -0.82640
O24         O  0.43389657  0.86164159  0.39506779    -0.80960
C25         C  0.52145146  0.10466898  0.44980921     0.87210
O26         O  0.49705579  0.96261975  0.40874360    -0.88100
O27         O  0.59233268  0.99342045  0.46701476    -0.88200
O28         O  0.58163928  0.91173498  0.48437125    -0.75260
Mg29       Mg  0.49562651  0.11337820  0.56221536     1.57970
O30         O  0.63561867  0.13085427  0.55609007    -0.82630
H31         H  0.35801188  0.04729564  0.49779167    -0.06360
O32         O  0.46437650  0.91147095  0.50956937    -0.87900
H33         H  0.50044715  0.85914212  0.55406819    -0.06180
H34         H  0.45688653  0.99961983  0.35242515    -0.06360
C35         C  0.48130385  0.89568507  0.55303072     0.87190
C36         C  0.39453024  0.04775907  0.51876306     0.87780
C37         C  0.45646442  0.98049612  0.39075118     0.87820
H38         H  0.64391495  0.95310997  0.50873426    -0.06340
O39         O  0.58879406  0.02491785  0.58807860    -0.75370
Mg40       Mg  0.50633301  0.88836506  0.44133642     1.58000
H41         H  0.54720123  0.00436107  0.65292492    -0.06360
C42         C  0.35534802  0.90760784  0.62265721     0.92810
O43         O  0.36348914  0.87426749  0.44334645    -0.82600
C44         C  0.38573809  0.85711069  0.40184031     0.92870
O45         O  0.44484674  0.14155688  0.62856832    -0.82580
Mg46       Mg  0.61256991  0.06160285  0.50839770     1.58180
O47         O  0.36080912  0.90021977  0.57224374    -0.80910
O48         O  0.63295565  0.05007365  0.36034212    -0.82610
O49         O  0.96100176  0.41395741  0.49069880    -0.88190
C50         C  0.89310154  0.55197308  0.48041723     0.87830
Mg51       Mg  0.00607332  0.39203843  0.55813911     1.58150
O52         O  0.00121821  0.53726459  0.40134136    -0.87930
O53         O  0.97014074  0.42200476  0.40347154    -0.75260
C54         C  0.14915411  0.59673142  0.61118463     0.92890
O55         O  0.91607941  0.48453231  0.58412466    -0.75070
O56         O  0.13560192  0.55535472  0.63357604    -0.82580
Mg57       Mg  0.88710984  0.44535968  0.50667108     1.57960
C58         C  0.11260423  0.64518546  0.39359581     0.92810
O59         O  0.85521487  0.40264751  0.43147162    -0.80840
H60         H  0.03956042  0.49937494  0.34461969    -0.06180
C61         C  0.02153028  0.60772306  0.54448987     0.87750
O62         O  0.07958292  0.41388904  0.51325666    -0.75350
O63         O  0.90788967  0.51050003  0.46213840    -0.88110
O64         O  0.06536805  0.63697386  0.38298377    -0.80920
C65         C  0.90048894  0.62011303  0.35083991     0.92920
C66         C  0.84685810  0.40991142  0.38148798     0.92780
Mg67       Mg  0.11104598  0.56253642  0.48610880     1.57950
O68         O  0.14064387  0.60530799  0.56164404    -0.80840
O69         O  0.08407929  0.52288755  0.40759075    -0.75090
O70         O  0.88866901  0.57317646  0.35824797    -0.80930
O71         O  0.86248051  0.38073662  0.55990887    -0.82640
O72         O  0.11159892  0.43362683  0.63487263    -0.80960
C73         C  0.04125306  0.51945019  0.38266439     0.87210
O74         O  0.09172343  0.49582579  0.52926638    -0.88100
O75         O  0.03657149  0.59109448  0.50073952    -0.88200
O76         O  0.02692996  0.58259789  0.58777619    -0.75260
Mg77       Mg  0.93155734  0.49823467  0.38177308     1.57970
O78         O  0.94488301  0.63738120  0.36246596    -0.82630
H79         H  0.99345552  0.35988964  0.44543322    -0.06360
O80         O  0.99838022  0.46708791  0.59011863    -0.87900
H81         H  0.96131179  0.50537234  0.64742281    -0.06180
H82         H  0.14133179  0.45396328  0.48724979    -0.06360
C83         C  0.95888726  0.48573758  0.60915887     0.87190
C84         C  0.97504115  0.39679985  0.44677166     0.87780
C85         C  0.10605619  0.45475092  0.50962904     0.87820
H86         H  0.00203679  0.64407539  0.54571774    -0.06340
O87         O  0.91940025  0.59284238  0.47583287    -0.75370
Mg88       Mg  0.06720874  0.50712249  0.60966369     1.58000
H89         H  0.85749821  0.55319801  0.50220405    -0.06360
C90         C  0.88620436  0.36227807  0.60012467     0.92810
O91         O  0.05792897  0.36739166  0.62603610    -0.82600
C92         C  0.10074282  0.38642080  0.64156701     0.92870
O93         O  0.86175321  0.45061757  0.35837098    -0.82580
Mg94       Mg  0.99385072  0.61273171  0.43153907     1.58180
O95         O  0.93485292  0.36561337  0.60564659    -0.80910
O96         O  0.13345396  0.63048086  0.43706306    -0.82610
O97         O  0.49685784  0.53676225  0.09338459    -0.88190
C98         C  0.48187261  0.60501359  0.94940132     0.87830
Mg99       Mg  0.56306049  0.49471755  0.11513247     1.58150
O100        O  0.40891170  0.49413631  0.96328160    -0.87930
O101        O  0.41388865  0.52279387  0.08527524    -0.75260
C102        C  0.61027236  0.35252377  0.89985759     0.92890
O103        O  0.58256131  0.58647870  0.01928841    -0.75070
O104        O  0.62993835  0.36822382  0.94393448    -0.82580
Mg105      Mg  0.50884372  0.61128799  0.06186704     1.57960
C106        C  0.39781584  0.38303425  0.85177480     0.92690
O107        O  0.43740975  0.64007209  0.10786782    -0.80840
H108        H  0.35604242  0.45361841  0.00255134    -0.06180
C109        C  0.54335639  0.47933725  0.88715412     0.87750
O110        O  0.52051102  0.41997416  0.09184429    -0.75350
O111        O  0.46537399  0.58953313  0.99292593    -0.88110
O112        O  0.38860733  0.43054359  0.85877515    -0.80920
C113        C  0.35544597  0.59470966  0.88035947     0.92920
C114        C  0.38946436  0.64588682  0.09929998     0.92780
Mg115      Mg  0.49078793  0.38802080  0.93451081     1.57950
O116        O  0.56326169  0.36052408  0.88791222    -0.80840
O117        O  0.41637638  0.41155661  0.97704464    -0.75090
O118        O  0.36279380  0.60377556  0.93018524    -0.80930
O119        O  0.55994511  0.63620694  0.13059425    -0.82640
O120        O  0.63543402  0.39534401  0.06945343    -0.80960
C121        C  0.39199285  0.45339433  0.98134720     0.87210
O122        O  0.53282958  0.40925742  0.00518611    -0.88100
O123        O  0.50224297  0.46276221  0.90472694    -0.88200
O124        O  0.58525327  0.47571964  0.91351942    -0.75260
Mg125      Mg  0.38981401  0.56140677  0.00640939     1.57970
O126        O  0.36891394  0.55309601  0.85817735    -0.82630
H127        H  0.45631496  0.50127569  0.14993804    -0.06360
O128        O  0.59003729  0.50428389  0.03535690    -0.87900
H129        H  0.64296622  0.54384515  0.99517889    -0.06180
H130        H  0.49468589  0.35826554  0.04936925    -0.06360
C131        C  0.60701728  0.54460564  0.01636842     0.87190
C132        C  0.45594543  0.52016235  0.11147453     0.87780
C133        C  0.51567564  0.39404914  0.04855564     0.87820
H134        H  0.54341883  0.49863896  0.84892292    -0.06340
O135        O  0.47714055  0.57898657  0.90620824    -0.75370
Mg136      Mg  0.60847252  0.43688437  0.99281983     1.58000
H137        H  0.50232151  0.64109868  0.94839200    -0.06360
C138        C  0.60231296  0.61582236  0.14413894     0.92810
O139        O  0.62885004  0.44436890  0.14223111    -0.82600
C140        C  0.64292907  0.40311355  0.11954439     0.92870
O141        O  0.36702672  0.62888088  0.05725227    -0.82580
Mg142      Mg  0.43522088  0.50389836  0.88347614     1.58180
O143        O  0.60947619  0.56773043  0.13923939    -0.80910
O144        O  0.44133680  0.36440403  0.86395054    -0.82610
O145        O  0.03420422  0.99305293  0.90729796    -0.88190
C146        C  0.10472980  0.97790650  0.05100118     0.87830
Mg147      Mg  0.99454336  0.06062592  0.88627280     1.58150
O148        O  0.99101225  0.90839896  0.03634703    -0.87930
O149        O  0.01864456  0.91075541  0.91441317    -0.75260
C150        C  0.85863146  0.11629772  0.10148169     0.92890
O151        O  0.09012860  0.07783950  0.98051984    -0.75070
O152        O  0.87825404  0.13838060  0.06129251    -0.82580
Mg153      Mg  0.11021640  0.00253649  0.93779884     1.57960
C154        C  0.87965962  0.90477037  0.14671015     0.92810
O155        O  0.13497210  0.92998185  0.89091411    -0.80840
H156        H  0.94782342  0.85766221  0.99550424    -0.06180
C157        C  0.98249108  0.04398099  0.11372113     0.87750
O158        O  0.91817590  0.02277321  0.90884246    -0.75350
O159        O  0.08808694  0.96139680  0.00735705    -0.88110
O160        O  0.92693060  0.89356542  0.14053636    -0.80920
C161        C  0.09095294  0.85232561  0.12046013     0.92920
C162        C  0.14174506  0.88279842  0.90120616     0.92780
Mg163      Mg  0.88772080  0.99546780  0.06350190     1.57950
O164        O  0.86158365  0.06814529  0.10860442    -0.80840
O165        O  0.90882533  0.92018480  0.02065708    -0.75090
O166        O  0.09865653  0.85861867  0.07040913    -0.80930
O167        O  0.13559492  0.05061812  0.86843471    -0.82640
O168        O  0.90070480  0.14095248  0.93432671    -0.80960
C169        C  0.94940502  0.89360812  0.01716834     0.87210
O170        O  0.91010203  0.03728253  0.99530113    -0.88100
O171        O  0.96336723  0.00401780  0.09518720    -0.88200
O172        O  0.98176681  0.08580642  0.08794877    -0.75260
Mg173      Mg  0.05747549  0.88677069  0.99363934     1.57970
O174        O  0.05045103  0.86837188  0.14295643    -0.82630
H175        H  0.99675161  0.95312140  0.85024378    -0.06360
O176        O  0.00766602  0.08839093  0.96587138    -0.87900
H177        H  0.05080528  0.14034557  0.00502619    -0.06180
H178        H  0.85539616  0.00246219  0.95132175    -0.06360
C179        C  0.04935943  0.10404052  0.98402915     0.87190
C180        C  0.01626748  0.95258847  0.88873095     0.87780
C181        C  0.89267763  0.02081920  0.95201310     0.87820
H182        H  0.00206477  0.04282866  0.15215486    -0.06340
O183        O  0.07906383  0.97456419  0.09407650    -0.75370
Mg184      Mg  0.94285977  0.11144348  0.00965473     1.58000
H185        H  0.14160524  0.99705760  0.05225323    -0.06360
C186        C  0.11552452  0.09243282  0.85369530     0.92810
O187        O  0.94756338  0.12840222  0.86105375    -0.82600
C188        C  0.90835434  0.14627746  0.88425260     0.92870
O189        O  0.12521557  0.86254201  0.94406927    -0.82580
Mg190      Mg  0.00246175  0.93592438  0.11639716     1.58180
O191        O  0.06827211  0.10237115  0.86047544    -0.80910
O192        O  0.86183317  0.94781310  0.13261928    -0.82610
C193        C  0.74840486  0.75293862  0.25001257    -0.02340
C194        C  0.75614756  0.25274159  0.75252112    -0.02340
C195        C  0.25065288  0.74827936  0.75014828    -0.02340
C196        C  0.24543652  0.24486415  0.75069454    -0.02340
C197        C  0.74737865  0.24781468  0.25038697    -0.02340
C198        C  0.25232826  0.75051403  0.24735140    -0.02340
C199        C  0.18145313  0.81799365  0.23561633    -0.21160
C200        C  0.21353442  0.78101602  0.21177469    -0.09200
C201        C  0.20108178  0.76618005  0.15781020     0.29660
C202        C  0.16179967  0.78989251  0.12914523    -0.21160
C203        C  0.13120565  0.82697637  0.15302519    -0.09210
C204        C  0.14124886  0.84091872  0.20675923     0.29670
F205        F  0.11279496  0.87735140  0.23125427    -0.19730
H206        H  0.18678846  0.82846558  0.27739471     0.18030
H207        H  0.15409597  0.77771255  0.08817524     0.18040
F208        F  0.22356575  0.72616491  0.13264448    -0.19720
C209        C  0.77929239  0.14299700  0.14645263    -0.21160
C210        C  0.83215275  0.14772347  0.14128515    -0.09200
C211        C  0.85928791  0.18319059  0.17349080     0.29660
C212        C  0.83331124  0.21428676  0.21018583    -0.21160
C213        C  0.77935604  0.21221155  0.21353048    -0.09210
C214        C  0.75303310  0.17484604  0.18148582     0.29670
F215        F  0.70112279  0.17077674  0.18208445    -0.19730
H216        H  0.75799883  0.11569743  0.12187804     0.18030
H217        H  0.85576442  0.23988957  0.23534038     0.18040
F218        F  0.91105110  0.18730406  0.16977157    -0.19720
C219        C  0.16829094  0.17176497  0.85975282    -0.21160
C220        C  0.14832319  0.13094002  0.82899224    -0.09200
C221        C  0.16015005  0.12684107  0.77487922     0.29660
C222        C  0.19090032  0.16374694  0.75131221    -0.21160
C223        C  0.21246407  0.20526814  0.78150829    -0.09210
C224        C  0.20038418  0.20862915  0.83662026     0.29670
F225        F  0.21723475  0.24803702  0.86786618    -0.19730
H226        H  0.15889104  0.17505364  0.90187028     0.18030
H227        H  0.19743795  0.16055464  0.70857079     0.18040
F228        F  0.14100501  0.08770022  0.74452457    -0.19720
C229        C  0.16260623  0.85555208  0.80683379    -0.21160
C230        C  0.16928769  0.85012814  0.86256914    -0.09200
C231        C  0.20150801  0.81181188  0.88165760     0.29660
C232        C  0.22677725  0.77984135  0.84615227    -0.21160
C233        C  0.21882402  0.78223663  0.78960039    -0.09210
C234        C  0.18675636  0.82203530  0.77074582     0.29670
F235        F  0.17925953  0.82904338  0.71734013    -0.19730
H236        H  0.13793066  0.88524003  0.79120649     0.18030
H237        H  0.25403945  0.75446902  0.86466145     0.18040
F238        F  0.21043896  0.80639550  0.93512438    -0.19720
C239        C  0.83095897  0.24927055  0.81875337    -0.21160
C240        C  0.79395713  0.22114132  0.78797698    -0.09200
C241        C  0.79661140  0.16707984  0.78947953     0.29660
C242        C  0.83408090  0.14317918  0.82119137    -0.21160
C243        C  0.86951598  0.17208772  0.85162656    -0.09210
C244        C  0.86775575  0.22521980  0.85030309     0.29670
F245        F  0.90207737  0.25387488  0.87897442    -0.19730
H246        H  0.83074409  0.29071398  0.81855183     0.18030
H247        H  0.83558069  0.10177929  0.82194227     0.18040
F248        F  0.76431222  0.13675543  0.76040692    -0.19720
C249        C  0.85217318  0.81388719  0.16085147    -0.21160
C250        C  0.84356777  0.86636819  0.16855943    -0.09200
C251        C  0.79757382  0.88160162  0.19258157     0.29660
C252        C  0.76409493  0.84523962  0.21357272    -0.21160
C253        C  0.77662731  0.79271012  0.21398037    -0.09210
C254        C  0.81801196  0.77742364  0.18125167     0.29670
F255        F  0.82840885  0.72710338  0.17360598    -0.19730
H256        H  0.88545326  0.80101369  0.13904961     0.18030
H257        H  0.72886682  0.85916512  0.23045080     0.18040
F258        F  0.78536046  0.93182491  0.19730996    -0.19720
C259        C  0.35419770  0.72458277  0.13990445    -0.21160
C260        C  0.35815512  0.67152282  0.13988715    -0.09200
C261        C  0.32949043  0.64280795  0.17661419     0.29660
C262        C  0.29593996  0.66712014  0.21211866    -0.21160
C263        C  0.28961941  0.72062536  0.21079204    -0.09210
C264        C  0.32081744  0.74899519  0.17491000     0.29670
F265        F  0.31731876  0.80070748  0.17216495    -0.19730
H266        H  0.37610724  0.74712712  0.11179897     0.18030
H267        H  0.27552564  0.64387209  0.24059822     0.18040
F268        F  0.33384653  0.59111987  0.17788679    -0.19720
C269        C  0.27764596  0.63442583  0.84374586    -0.21160
C270        C  0.33075758  0.63370063  0.84723984    -0.09200
C271        C  0.35977637  0.66969160  0.81854728     0.29660
C272        C  0.33530119  0.70651647  0.78655902    -0.21160
C273        C  0.28133552  0.70860280  0.78381762    -0.09210
C274        C  0.25311447  0.67087555  0.81262399     0.29670
F275        F  0.20105182  0.67051585  0.81238213    -0.19730
H276        H  0.25495782  0.60675623  0.86554051     0.18030
H277        H  0.35875009  0.73288385  0.76420547     0.18040
F278        F  0.41177351  0.66919306  0.82163385    -0.19720
C279        C  0.63883572  0.33056306  0.80592170    -0.21160
C280        C  0.64431802  0.32563776  0.86181491    -0.09200
C281        C  0.68559709  0.29764931  0.88193073     0.29660
C282        C  0.72094411  0.27590656  0.84754082    -0.21160
C283        C  0.71854354  0.28231015  0.79084674    -0.09210
C284        C  0.67506523  0.30910717  0.77086227     0.29670
F285        F  0.66661773  0.31339182  0.71722810    -0.19730
H286        H  0.60690347  0.35175203  0.78931667     0.18030
H287        H  0.74881473  0.25227686  0.86738635     0.18040
F288        F  0.69129696  0.28977268  0.93550727    -0.19720
C289        C  0.65771128  0.35849761  0.20749324    -0.21160
C290        C  0.66702167  0.36224536  0.15217160    -0.09200
C291        C  0.69768080  0.32515050  0.12788604     0.29660
C292        C  0.72026708  0.28678676  0.15839401    -0.21160
C293        C  0.71256746  0.28274581  0.21463676    -0.09210
C294        C  0.67967026  0.31929406  0.23825658     0.29670
F295        F  0.67094922  0.31894915  0.29183026    -0.19730
H296        H  0.63341360  0.38615954  0.22716404     0.18030
H297        H  0.74652428  0.26261908  0.13699076     0.18040
F298        F  0.70828278  0.32724359  0.07470138    -0.19720
C299        C  0.64044656  0.70297503  0.15768303    -0.21160
C300        C  0.64463322  0.64972413  0.16365771    -0.09200
C301        C  0.69067009  0.63023506  0.18486591     0.29660
C302        C  0.72803039  0.66351311  0.20618997    -0.21160
C303        C  0.71893520  0.71669637  0.21011343    -0.09210
C304        C  0.67784418  0.73606807  0.17890514     0.29670
F305        F  0.67005193  0.78718594  0.17493127    -0.19730
H306        H  0.60729985  0.71939601  0.13789353     0.18030
H307        H  0.76287544  0.64673264  0.22154844     0.18040
F308        F  0.69917921  0.57910900  0.18666552    -0.19720
C309        C  0.30678425  0.36525102  0.82059337    -0.21160
C310        C  0.35667111  0.34776200  0.83146041    -0.09200
C311        C  0.36535794  0.29486870  0.82808006     0.29660
C312        C  0.32713133  0.26175885  0.80914984    -0.21160
C313        C  0.27961278  0.27970397  0.78897454    -0.09210
C314        C  0.26832598  0.33165258  0.80131502     0.29670
F315        F  0.22001590  0.35015043  0.79637434    -0.19730
H316        H  0.29724234  0.40500351  0.82738295     0.18030
H317        H  0.33676387  0.22197296  0.80924025     0.18040
F318        F  0.41105650  0.27436510  0.84286869    -0.19720
C319        C  0.14327096  0.66895907  0.67600571    -0.21160
C320        C  0.17346592  0.63679651  0.64416302    -0.09200
C321        C  0.22653491  0.64244438  0.64505954     0.29660
C322        C  0.24928040  0.67941055  0.67802724    -0.21160
C323        C  0.21989061  0.71236936  0.71117735    -0.09210
C324        C  0.16588379  0.70641310  0.70938667     0.29670
F325        F  0.13466756  0.73390461  0.74146843    -0.19730
H326        H  0.10193821  0.66435106  0.67570058     0.18030
H327        H  0.29076268  0.68218681  0.67838338     0.18040
F328        F  0.25647499  0.61128647  0.61511599    -0.19720
C329        C  0.20948842  0.73666955  0.33912796    -0.21160
C330        C  0.21690121  0.71931862  0.28550541    -0.09200
C331        C  0.18344499  0.68002037  0.26662349     0.29660
C332        C  0.14824824  0.65665975  0.30132010    -0.21160
C333        C  0.14483282  0.67254089  0.35508297    -0.09210
C334        C  0.17525484  0.71310073  0.37335406     0.29670
F335        F  0.17077134  0.73113807  0.42432520    -0.19730
H336        H  0.22897712  0.76995834  0.35544999     0.18030
H337        H  0.12422384  0.62560948  0.28643383     0.18040
F338        F  0.18390221  0.66463770  0.21457303    -0.19720
C339        C  0.81587682  0.36331977  0.66722946    -0.21160
C340        C  0.85608461  0.33725543  0.64215765    -0.09200
C341        C  0.86724503  0.28749637  0.65761828     0.29660
C342        C  0.83589337  0.26264479  0.69407036    -0.21160
C343        C  0.79301026  0.28702186  0.71829835    -0.09210
C344        C  0.78569665  0.33937874  0.70624069     0.29670
F345        F  0.75023193  0.36823515  0.73119293    -0.19730
H346        H  0.80827106  0.40278600  0.65700293     0.18030
H347        H  0.84369904  0.22262395  0.70111136     0.18040
F348        F  0.90662292  0.26170381  0.63499447    -0.19720
C349        C  0.11938687  0.30900771  0.69414831    -0.21160
C350        C  0.13817985  0.35171617  0.66772631    -0.09200
C351        C  0.19155693  0.35892409  0.66567479     0.29660
C352        C  0.22496557  0.32331075  0.68956497    -0.21160
C353        C  0.20679641  0.27932897  0.71703054    -0.09210
C354        C  0.15179193  0.27456925  0.71947957     0.29670
F355        F  0.12642695  0.23967369  0.74920383    -0.19730
H356        H  0.07834229  0.30308130  0.69741585     0.18030
H357        H  0.26543703  0.33267934  0.69018519     0.18040
F358        F  0.21164006  0.40042742  0.64088417    -0.19720
C359        C  0.80890032  0.64586972  0.33563629    -0.21160
C360        C  0.86152180  0.65641595  0.33043466    -0.09200
C361        C  0.87630329  0.70433775  0.31030271     0.29660
C362        C  0.83962291  0.73783292  0.29021406    -0.21160
C363        C  0.78734626  0.72350545  0.28622963    -0.09210
C364        C  0.77209528  0.68004975  0.31589999     0.29670
F365        F  0.72171319  0.66802844  0.32139646    -0.19730
H366        H  0.79616670  0.61104118  0.35481892     0.18030
H367        H  0.85320524  0.77449497  0.27637013     0.18040
F368        F  0.92639566  0.71870438  0.30854597    -0.19720
C369        C  0.82967517  0.36595445  0.29317455    -0.21160
C370        C  0.82197981  0.36867310  0.34886125    -0.09200
C371        C  0.79329989  0.32983198  0.37311417     0.29660
C372        C  0.77179489  0.29022410  0.34232703    -0.21160
C373        C  0.77907262  0.28654778  0.28598338    -0.09210
C374        C  0.80885228  0.32575410  0.26220542     0.29670
F375        F  0.81623901  0.32655581  0.20840262    -0.19730
H376        H  0.85220126  0.39503735  0.27333035     0.18030
H377        H  0.74721853  0.26414938  0.36360298     0.18040
F378        F  0.78421197  0.33087740  0.42665532    -0.19720
C379        C  0.33836700  0.86341569  0.71080362    -0.21160
C380        C  0.32957577  0.86735254  0.65509365    -0.09200
C381        C  0.29773352  0.83079668  0.63015492     0.29660
C382        C  0.27435766  0.79247916  0.65999876    -0.21160
C383        C  0.28307426  0.78697201  0.71614403    -0.09210
C384        C  0.31579593  0.82390029  0.74088220     0.29670
F385        F  0.32443880  0.82314483  0.79466007    -0.19730
H386        H  0.36306372  0.89090493  0.73124573     0.18030
H387        H  0.24734352  0.76887758  0.63788033     0.18040
F388        F  0.28727291  0.83291409  0.57671084    -0.19720
C389        C  0.66494153  0.20255469  0.28635079    -0.21160
C390        C  0.71872356  0.20898922  0.28669263    -0.09200
C391        C  0.74822540  0.17500826  0.31887614     0.29660
C392        C  0.72489563  0.13729646  0.34971078    -0.21160
C393        C  0.67179550  0.13132093  0.34875991    -0.09210
C394        C  0.64178785  0.16413730  0.31706210     0.29670
F395        F  0.58995127  0.15896254  0.31587345    -0.19730
H396        H  0.64059573  0.22595912  0.26136247     0.18030
H397        H  0.74844571  0.11240939  0.37416122     0.18040
F398        F  0.80019344  0.17861825  0.32070832    -0.19720
C399        C  0.72931125  0.22097384  0.65646268    -0.21160
C400        C  0.72188433  0.21983675  0.71286986    -0.09200
C401        C  0.67769474  0.19291470  0.73071010     0.29660
C402        C  0.64231676  0.17129526  0.69385946    -0.21160
C403        C  0.65078561  0.17373724  0.63835945    -0.09210
C404        C  0.69548499  0.19765908  0.62040958     0.29670
F405        F  0.70631185  0.19994410  0.56726720    -0.19730
H406        H  0.76054559  0.24084404  0.63789257     0.18030
H407        H  0.60876957  0.15162657  0.70886588     0.18040
F408        F  0.66774930  0.18857238  0.78383078    -0.19720
C409        C  0.30298316  0.16496282  0.74024579    -0.21160
C410        C  0.28428875  0.21124062  0.71675473    -0.09200
C411        C  0.30683713  0.22495862  0.66713055     0.29660
C412        C  0.34708039  0.19594579  0.64549007    -0.21160
C413        C  0.36464672  0.15144588  0.67082043    -0.09210
C414        C  0.34127868  0.13563448  0.71765016     0.29670
F415        F  0.35708352  0.09272319  0.74325590    -0.19730
H416        H  0.28973009  0.15178299  0.77877538     0.18030
H417        H  0.36370420  0.20757433  0.60779035     0.18040
F418        F  0.29026632  0.26465182  0.63752662    -0.19720
C419        C  0.65783462  0.76459275  0.29166052    -0.21160
C420        C  0.71008973  0.77924109  0.28918242    -0.09200
C421        C  0.72568471  0.82081192  0.32238651     0.29660
C422        C  0.68903462  0.85389764  0.34408794    -0.21160
C423        C  0.63635252  0.84366814  0.33743939    -0.09210
C424        C  0.62134586  0.79685898  0.31396817     0.29670
F425        F  0.57116512  0.78287863  0.31052331    -0.19730
H426        H  0.64410887  0.72893225  0.27454800     0.18030
H427        H  0.70188988  0.88778465  0.36569362     0.18040
F428        F  0.77612400  0.83275500  0.32884063    -0.19720
C429        C  0.35499597  0.77880798  0.35595257    -0.21160
C430        C  0.35473857  0.83182821  0.35986000    -0.09200
C431        C  0.32493006  0.86032381  0.32355172     0.29660
C432        C  0.29371692  0.83546907  0.28502938    -0.21160
C433        C  0.29072213  0.78161417  0.28326949    -0.09210
C434        C  0.32373942  0.75387333  0.31841238     0.29670
F435        F  0.32312011  0.70196554  0.31907059    -0.19730
H436        H  0.37833242  0.75648870  0.38325410     0.18030
H437        H  0.27187318  0.85858640  0.25738430     0.18040
F438        F  0.32608328  0.91221350  0.32544954    -0.19720
loop_ 
_geom_bond_atom_site_label_1 
_geom_bond_atom_site_label_2 
_geom_bond_distance 
_geom_bond_site_symmetry_2 
_ccdc_geom_bond_type 
O1           Mg3   2.109   1_545  S
O1           Mg9   2.138   1_545  S
O1           C36   1.240       .  S
C2           O15   1.239       .  S
C2           O39   1.273       .  A
C2           H41   1.081       .  S
Mg3          O32   2.135       .  S
Mg3          O47   2.323       .  S
Mg3          O43   2.260       .  S
Mg3          O14   2.303       .  S
O4          Mg46   2.121       .  S
O4          Mg29   2.128       .  S
O4           C25   1.240       .  S
O5           C36   1.272       .  A
O5          Mg29   2.294       .  S
C6            O8   1.271       .  A
C6           O20   1.279       .  A
C6          C423   1.483       .  S
O7           C35   1.272       .  A
O7           Mg9   2.297       .  S
O8          Mg40   2.243       .  S
Mg9          O15   2.121   1_565  S
Mg9          O23   2.283       .  S
Mg9          O11   2.310   1_565  S
C10          O48   1.273       .  A
C10          O16   1.274       .  A
C10         C393   1.470       .  S
O11          C18   1.278       .  A
H12          C25   1.081       .  S
C13          O27   1.240       .  S
C13          O28   1.273       .  A
C13          H38   1.081       .  S
O14          C37   1.274       .  A
O15         Mg29   2.138       .  S
O16         Mg46   2.311       .  S
C17          O30   1.271       .  A
C17          O22   1.278       .  A
C17         C403   1.482       .  S
C18          O45   1.272       .  A
C18         C413   1.472       .  S
Mg19         O26   2.125   1_545  S
Mg19         O27   2.128   1_545  S
Mg19         O20   2.337   1_545  S
Mg19         O21   2.306       .  S
Mg19         O48   2.269       .  S
O21          C25   1.274       .  A
O22         Mg29   2.339       .  S
O23          C42   1.275       .  A
O24          C44   1.274       .  A
O24         Mg40   2.304       .  S
O26         Mg40   2.124       .  S
O26          C37   1.240       .  S
O27         Mg46   2.115   1_565  S
O28         Mg40   2.304       .  S
Mg29         O45   2.253       .  S
O30         Mg46   2.235       .  S
H31          C36   1.081       .  S
O32         Mg40   2.119       .  S
O32          C35   1.239       .  S
H33          C35   1.081       .  S
H34          C37   1.081       .  S
O39         Mg46   2.300       .  S
C42          O47   1.279       .  A
C42         C380   1.492       .  S
O43          C44   1.272       .  A
C44         C430   1.466       .  S
O49         Mg51   2.124   1_655  S
O49         Mg57   2.140       .  S
O49          C84   1.240       .  S
C50          O63   1.239       .  S
C50          O87   1.272       .  A
C50          H89   1.081       .  S
Mg51         O80   2.125   1_455  S
Mg51         O95   2.317   1_455  S
Mg51         O91   2.254       .  S
Mg51         O62   2.300       .  S
O52         Mg94   2.118   1_455  S
O52         Mg77   2.128   1_455  S
O52          C73   1.240       .  S
O53          C84   1.274       .  A
O53         Mg77   2.303       .  S
C54          O56   1.270       .  A
C54          O68   1.273       .  A
C54         C320   1.464       .  S
O55          C83   1.273       .  A
O55         Mg57   2.297       .  S
O56         Mg88   2.250       .  S
Mg57         O63   2.110       .  S
Mg57         O71   2.250       .  S
Mg57         O59   2.319       .  S
C58          O96   1.270       .  A
C58          O64   1.273       .  A
C58         C333   1.469       .  S
O59          C66   1.278       .  A
H60          C73   1.081       .  S
C61          O75   1.240       .  S
C61          O76   1.274       .  A
C61          H86   1.081       .  S
O62          C85   1.272       .  A
O63         Mg77   2.125       .  S
O64         Mg94   2.321   1_455  S
C65          O78   1.270       .  A
C65          O70   1.278       .  A
C65         C360   1.483       .  S
C66          O93   1.274       .  A
C66         C370   1.487       .  S
Mg67         O74   2.116       .  S
Mg67         O75   2.120       .  S
Mg67         O68   2.306       .  S
Mg67         O69   2.309       .  S
Mg67         O96   2.241       .  S
O69          C73   1.274       .  A
O70         Mg77   2.337       .  S
O71          C90   1.271       .  A
O72          C92   1.277       .  A
O72         Mg88   2.336       .  S
O74         Mg88   2.129       .  S
O74          C85   1.239       .  S
O75         Mg94   2.124   1_455  S
O76         Mg88   2.307       .  S
Mg77         O93   2.267       .  S
O78         Mg94   2.233       .  S
H79          C84   1.081       .  S
O80         Mg88   2.122   1_655  S
O80          C83   1.240       .  S
H81          C83   1.081       .  S
H82          C85   1.081       .  S
O87         Mg94   2.302       .  S
C90          O95   1.277       .  A
C90         C340   1.470       .  S
O91          C92   1.274       .  A
C92         C350   1.485       .  S
O97         Mg99   2.120       .  S
O97        Mg105   2.128       .  S
O97         C132   1.240       .  S
C98         O111   1.241       .  S
C98         O135   1.274       .  A
C98         H137   1.081       .  S
Mg99        O128   2.132       .  S
Mg99        O143   2.326       .  S
Mg99        O139   2.269       .  S
Mg99        O110   2.309       .  S
O100       Mg142   2.127       .  S
O100       Mg125   2.120   1_556  S
O100        C121   1.240       .  S
O101        C132   1.273       .  A
O101       Mg125   2.298       .  S
C102        O104   1.272       .  A
C102        O116   1.277       .  A
C102        C280   1.483       .  S
O103        C131   1.273       .  A
O103       Mg105   2.301       .  S
O104       Mg136   2.240       .  S
Mg105       O111   2.120   1_554  S
Mg105       O119   2.249       .  S
Mg105       O107   2.325       .  S
C106        O144   1.272       .  A
C106        O112   1.278       .  A
C106        C310   1.492       .  S
O107        C114   1.276       .  A
H108        C121   1.081   1_554  S
C109        O123   1.239       .  S
C109        O124   1.273       .  A
C109        H134   1.081       .  S
O110        C133   1.275       .  A
O111       Mg125   2.129   1_556  S
O112       Mg142   2.339       .  S
C113        O126   1.270       .  A
C113        O118   1.275       .  A
C113        C270   1.464       .  S
C114        O141   1.271       .  A
C114        C260   1.468       .  S
Mg115       O122   2.133   1_556  S
Mg115       O123   2.115       .  S
Mg115       O116   2.343       .  S
Mg115       O117   2.306       .  S
Mg115       O144   2.250       .  S
O117        C121   1.273       .  A
O118       Mg125   2.311   1_556  S
O119        C138   1.273       .  A
O120        C140   1.276       .  A
O120       Mg136   2.308   1_554  S
O122       Mg136   2.122   1_554  S
O122        C133   1.241       .  S
O123       Mg142   2.122       .  S
O124       Mg136   2.304       .  S
Mg125       O141   2.252       .  S
O126       Mg142   2.249       .  S
H127        C132   1.081       .  S
O128       Mg136   2.111   1_554  S
O128        C131   1.239       .  S
H129        C131   1.081   1_556  S
H130        C133   1.081       .  S
O135       Mg142   2.305       .  S
C138        O143   1.278       .  A
C138        C300   1.487       .  S
O139        C140   1.273       .  A
C140        C290   1.485       .  S
O145       Mg147   2.119   1_465  S
O145       Mg153   2.127   1_565  S
O145        C180   1.239       .  S
C146        O159   1.240       .  S
C146        O183   1.274       .  A
C146        H185   1.081       .  S
Mg147       O176   2.131   1_655  S
Mg147       O191   2.304   1_655  S
Mg147       O187   2.250       .  S
Mg147       O158   2.295       .  S
O148       Mg190   2.133   1_655  S
O148       Mg173   2.122   1_654  S
O148        C169   1.239       .  S
O149        C180   1.272       .  A
O149       Mg173   2.301       .  S
C150        O152   1.270       .  A
C150        O164   1.275       .  A
C150        C210   1.465       .  S
O151        C179   1.272       .  A
O151       Mg153   2.298       .  S
O152       Mg184   2.245       .  S
Mg153       O159   2.129   1_546  S
Mg153       O167   2.247       .  S
Mg153       O155   2.320   1_545  S
C154        O192   1.271       .  A
C154        O160   1.279       .  A
C154        C250   1.482       .  S
O155        C162   1.275       .  A
H156        C169   1.081   1_556  S
C157        O171   1.239       .  S
C157        O172   1.272       .  A
C157        H182   1.081   1_655  S
O158        C181   1.272       .  A
O159       Mg173   2.127   1_554  S
O160       Mg190   2.339   1_655  S
C161        O174   1.273       .  A
C161        O166   1.277       .  A
C161        C203   1.482       .  S
C162        O189   1.273       .  A
C162        C230   1.478       .  S
Mg163       O170   2.112   1_564  S
Mg163       O171   2.126   1_565  S
Mg163       O164   2.312   1_565  S
Mg163       O165   2.306       .  S
Mg163       O192   2.240       .  S
O165        C169   1.273       .  A
O166       Mg173   2.310   1_554  S
O167        C186   1.270       .  A
O168        C188   1.274       .  A
O168       Mg184   2.305   1_556  S
O170       Mg184   2.140   1_556  S
O170        C181   1.239       .  S
O171       Mg190   2.124   1_645  S
O172       Mg184   2.295       .  S
Mg173       O189   2.258       .  S
O174       Mg190   2.269       .  S
H175        C180   1.081   1_655  S
O176       Mg184   2.111   1_456  S
O176        C179   1.239       .  S
H177        C179   1.081   1_554  S
H178        C181   1.081       .  S
O183       Mg190   2.307       .  S
C186        O191   1.274       .  A
C186        C220   1.460       .  S
O187        C188   1.270       .  A
C188        C243   1.463       .  S
C193        C253   1.564       .  S
C193        C303   1.562       .  S
C193        C363   1.561       .  S
C193        C420   1.564       .  S
C194        C240   1.561       .  S
C194        C283   1.579       .  S
C194        C343   1.572       .  S
C194        C400   1.573       .  S
C195        C233   1.568       .  S
C195        C273   1.558       .  S
C195        C323   1.559       .  S
C195        C383   1.572       .  S
C196        C223   1.554       .  S
C196        C313   1.579       .  S
C196        C353   1.592       .  S
C196        C410   1.592       .  S
C197        C213   1.556       .  S
C197        C293   1.567       .  S
C197        C373   1.567       .  S
C197        C390   1.557       .  S
C198        C200   1.564       .  S
C198        C263   1.551       .  S
C198        C330   1.563       .  S
C198        C433   1.557       .  S
C199        H206   1.082       .  S
C199        C200   1.415       .  A
C199        C204   1.405       .  A
C200        C201   1.430       .  A
C201        C202   1.393       .  A
C201        F208   1.356       .  S
C202        H207   1.084       .  S
C202        C203   1.394       .  A
C203        C204   1.407       .  A
C204        F205   1.357       .  S
C209        H216   1.084       .  S
C209        C210   1.390       .  A
C209        C214   1.391       .  A
C210        C211   1.405       .  A
C211        C212   1.403       .  A
C211        F218   1.358       .  S
C212        H217   1.079       .  S
C212        C213   1.411       .  A
C213        C214   1.426       .  A
C214        F215   1.357       .  S
C219        H226   1.083       .  S
C219        C220   1.404       .  A
C219        C224   1.403       .  A
C220        C221   1.390       .  A
C221        C222   1.388       .  A
C221        F228   1.358       .  S
C222        H227   1.083       .  S
C222        C223   1.426       .  A
C223        C224   1.415       .  A
C224        F225   1.355       .  S
C229        H236   1.083       .  S
C229        C230   1.406       .  A
C229        C234   1.408       .  A
C230        C231   1.394       .  A
C231        C232   1.388       .  A
C231        F238   1.358       .  S
C232        H237   1.078       .  S
C232        C233   1.424       .  A
C233        C234   1.418       .  A
C234        F235   1.357       .  S
C239        H246   1.084       .  S
C239        C240   1.424       .  A
C239        C244   1.390       .  A
C240        C241   1.416       .  A
C241        C242   1.403       .  A
C241        F248   1.354       .  S
C242        H247   1.084       .  S
C242        C243   1.403       .  A
C243        C244   1.391       .  A
C244        F245   1.358       .  S
C249        H256   1.083       .  S
C249        C250   1.404       .  A
C249        C254   1.402       .  A
C250        C251   1.405       .  A
C251        C252   1.395       .  A
C251        F258   1.358       .  S
C252        H257   1.079       .  S
C252        C253   1.414       .  A
C253        C254   1.418       .  A
C254        F255   1.358       .  S
C259        H266   1.084       .  S
C259        C260   1.392       .  A
C259        C264   1.394       .  A
C260        C261   1.406       .  A
C261        C262   1.403       .  A
C261        F268   1.357       .  S
C262        H267   1.080       .  S
C262        C263   1.410       .  A
C263        C264   1.424       .  A
C264        F265   1.358       .  S
C269        H276   1.084       .  S
C269        C270   1.387       .  A
C269        C274   1.388       .  A
C270        C271   1.407       .  A
C271        C272   1.406       .  A
C271        F278   1.357       .  S
C272        H277   1.080       .  S
C272        C273   1.409       .  A
C273        C274   1.429       .  A
C274        F275   1.357       .  S
C279        H286   1.083       .  S
C279        C280   1.405       .  A
C279        C284   1.410       .  A
C280        C281   1.396       .  A
C281        C282   1.387       .  A
C281        F288   1.359       .  S
C282        H287   1.075       .  S
C282        C283   1.424       .  A
C283        C284   1.424       .  A
C284        F285   1.358       .  S
C289        H296   1.083       .  S
C289        C290   1.406       .  A
C289        C294   1.405       .  A
C290        C291   1.400       .  A
C291        C292   1.392       .  A
C291        F298   1.358       .  S
C292        H297   1.078       .  S
C292        C293   1.423       .  A
C293        C294   1.418       .  A
C294        F295   1.357       .  S
C299        H306   1.083       .  S
C299        C300   1.406       .  A
C299        C304   1.397       .  A
C300        C301   1.406       .  A
C301        C302   1.400       .  A
C301        F308   1.357       .  S
C302        H307   1.079       .  S
C302        C303   1.415       .  A
C303        C304   1.415       .  A
C304        F305   1.357       .  S
C309        H316   1.083       .  S
C309        C310   1.406       .  A
C309        C314   1.407       .  A
C310        C311   1.405       .  A
C311        C312   1.392       .  A
C311        F318   1.358       .  S
C312        H317   1.072       .  S
C312        C313   1.416       .  A
C313        C314   1.424       .  A
C314        F315   1.357       .  S
C319        H326   1.084       .  S
C319        C320   1.404       .  A
C319        C324   1.403       .  A
C320        C321   1.391       .  A
C321        C322   1.390       .  A
C321        F328   1.358       .  S
C322        H327   1.084       .  S
C322        C323   1.423       .  A
C323        C324   1.416       .  A
C324        F325   1.354       .  S
C329        H336   1.080       .  S
C329        C330   1.424       .  A
C329        C334   1.386       .  A
C330        C331   1.418       .  A
C331        C332   1.407       .  A
C331        F338   1.356       .  S
C332        H337   1.083       .  S
C332        C333   1.404       .  A
C333        C334   1.391       .  A
C334        F335   1.359       .  S
C339        H346   1.084       .  S
C339        C340   1.404       .  A
C339        C344   1.405       .  A
C340        C341   1.391       .  A
C341        C342   1.390       .  A
C341        F348   1.358       .  S
C342        H347   1.082       .  S
C342        C343   1.428       .  A
C343        C344   1.417       .  A
C344        F345   1.352       .  S
C349        H356   1.084       .  S
C349        C350   1.389       .  A
C349        C354   1.389       .  A
C350        C351   1.405       .  A
C351        C352   1.410       .  A
C351        F358   1.357       .  S
C352        H357   1.082       .  S
C352        C353   1.423       .  A
C353        C354   1.441       .  A
C354        F355   1.353       .  S
C359        H366   1.083       .  S
C359        C360   1.405       .  A
C359        C364   1.403       .  A
C360        C361   1.406       .  A
C361        C362   1.392       .  A
C361        F368   1.358       .  S
C362        H367   1.080       .  S
C362        C363   1.414       .  A
C363        C364   1.417       .  A
C364        F365   1.357       .  S
C369        H376   1.083       .  S
C369        C370   1.406       .  A
C369        C374   1.403       .  A
C370        C371   1.401       .  A
C371        C372   1.396       .  A
C371        F378   1.358       .  S
C372        H377   1.078       .  S
C372        C373   1.422       .  A
C373        C374   1.419       .  A
C374        F375   1.357       .  S
C379        H386   1.083       .  S
C379        C380   1.409       .  A
C379        C384   1.410       .  A
C380        C381   1.400       .  A
C381        C382   1.393       .  A
C381        F388   1.358       .  S
C382        H387   1.078       .  S
C382        C383   1.423       .  A
C383        C384   1.418       .  A
C384        F385   1.357       .  S
C389        H396   1.080       .  S
C389        C390   1.411       .  A
C389        C394   1.404       .  A
C390        C391   1.424       .  A
C391        C392   1.395       .  A
C391        F398   1.358       .  S
C392        H397   1.083       .  S
C392        C393   1.392       .  A
C393        C394   1.406       .  A
C394        F395   1.357       .  S
C399        H406   1.074       .  S
C399        C400   1.421       .  A
C399        C404   1.387       .  A
C400        C401   1.423       .  A
C401        C402   1.408       .  A
C401        F408   1.357       .  S
C402        H407   1.083       .  S
C402        C403   1.405       .  A
C403        C404   1.398       .  A
C404        F405   1.359       .  S
C409        H416   1.082       .  S
C409        C410   1.434       .  A
C409        C414   1.385       .  A
C410        C411   1.422       .  A
C411        C412   1.409       .  A
C411        F418   1.348       .  S
C412        H417   1.083       .  S
C412        C413   1.404       .  A
C413        C414   1.387       .  A
C414        F415   1.358       .  S
C419        H426   1.080       .  S
C419        C420   1.415       .  A
C419        C424   1.394       .  A
C420        C421   1.416       .  A
C421        C422   1.404       .  A
C421        F428   1.357       .  S
C422        H427   1.083       .  S
C422        C423   1.406       .  A
C423        C424   1.404       .  A
C424        F425   1.358       .  S
C429        H436   1.084       .  S
C429        C430   1.389       .  A
C429        C434   1.390       .  A
C430        C431   1.407       .  A
C431        C432   1.405       .  A
C431        F438   1.357       .  S
C432        H437   1.080       .  S
C432        C433   1.410       .  A
C433        C434   1.426       .  A
C434        F435   1.357       .  S
