geometry optimzed in LAMMPS
_audit_creation_date              2020-12-01 
_audit_creation_method            'lammps2cif' 
_symmetry_space_group_name_H-M    'P1' 
_symmetry_Int_Tables_number       1 
_symmetry_cell_setting            triclinic 
loop_ 
_symmetry_equiv_pos_as_xyz 
  x,y,z 
_cell_length_a                    29.34374987 
_cell_length_b                    29.60496089235207 
_cell_length_c                    48.44803770141145 
_cell_angle_alpha                 89.2792926020335 
_cell_angle_beta                  90.612395766923 
_cell_angle_gamma                 89.98006266767696 
loop_ 
_atom_site_label 
_atom_site_type_symbol 
_atom_site_fract_x 
_atom_site_fract_y 
_atom_site_fract_z 
_atom_site_charge 
C1          C  0.25467659  0.04428593  0.23016202     0.87700
C2          C  0.26360739  0.99968951  0.21521273    -0.52500
C3          C  0.25725134  0.46626012  0.23507442     0.10700
C4          C  0.25567974  0.48150751  0.26524067     0.21600
C5          C  0.21067709  0.03606160  0.24603857    -0.53200
C6          C  0.21264919  0.51055070  0.26664830     0.10800
C7          C  0.29216430  0.04660000  0.25234503    -0.52700
C8          C  0.29568936  0.51463980  0.26782596     0.11300
H9          H  0.25569658  0.49588048  0.19394857     0.15900
H10         H  0.25668971  0.45316326  0.28050404     0.01600
H11         H  0.18140519  0.05839523  0.24420313     0.16200
H12         H  0.31604545  0.07454768  0.25377543     0.16000
N13         N  0.43287349  0.27678437  0.99340044    -0.35300
N14         N  0.00390319  0.22215100  0.04620675    -0.55900
N15         N  0.07011148  0.22732848  0.00209314    -0.35300
N16         N  0.99776898  0.22333218  0.96108797    -0.55900
C17         C  0.41113138  0.29874791  0.01376161     0.28200
C18         C  0.40615904  0.27935165  0.97039106     0.28200
C19         C  0.09692658  0.23705639  0.02408401     0.28200
C20         C  0.09359500  0.23822997  0.97906168     0.28200
C21         C  0.46975116  0.28846055  0.05064153     0.36900
C22         C  0.04247549  0.21609590  0.06121210     0.36900
C23         C  0.45792750  0.23980345  0.93886075     0.36900
C24         C  0.03441209  0.21525148  0.94517324     0.36900
C25         C  0.37022877  0.31595221  0.00350639    -0.20600
C26         C  0.36721641  0.30392571  0.97611138    -0.20600
C27         C  0.13821832  0.25409949  0.01492151    -0.20600
C28         C  0.13591333  0.25531300  0.98656944    -0.20600
C29         C  0.48286898  0.27319685  0.07671666    -0.21700
C30         C  0.03212674  0.20190165  0.08783065    -0.21700
C31         C  0.46737830  0.20993343  0.91786747    -0.21700
C32         C  0.02097605  0.19359555  0.92122266    -0.21700
C33         C  0.42436417  0.29779894  0.04202680    -0.17000
C34         C  0.41465532  0.25709245  0.94517091    -0.17000
C35         C  0.07941547  0.22909062  0.95164484    -0.17000
C36         C  0.08663870  0.22640628  0.05186405    -0.17000
H37         H  0.34462875  0.33418799  0.01481886     0.15900
H38         H  0.33901684  0.31141371  0.96222657     0.15900
H39         H  0.16763545  0.26357945  0.02715456     0.15900
H40         H  0.16307275  0.26614864  0.97309797     0.15900
H41         H  0.46132639  0.26522406  0.09407076     0.14200
H42         H  0.05550678  0.19513109  0.10481228     0.14200
H43         H  0.44339140  0.19355580  0.90414138     0.14200
H44         H  0.04229578  0.18185438  0.90471086     0.14200
H45         H  0.46103804  0.25586896  0.99627633     0.27400
H46         H  0.04022889  0.20863671  0.00276542     0.27400
C47         C  0.25287125  0.05199397  0.77364471     0.87700
C48         C  0.21445065  0.05414952  0.75203747    -0.52500
C49         C  0.18954240  0.50381034  0.72607669     0.10700
C50         C  0.23178753  0.47184543  0.72799538     0.21600
C51         C  0.24956002  0.00469686  0.78692282    -0.53200
C52         C  0.23547380  0.45967186  0.75901561     0.10800
C53         C  0.29647678  0.05071104  0.75658446    -0.52700
C54         C  0.27348965  0.50271493  0.72261329     0.11300
H55         H  0.18782550  0.07956545  0.75231464     0.15900
H56         H  0.22955377  0.44207256  0.71433386     0.01600
H57         H  0.24011481  0.49379069  0.79795322     0.16200
H58         H  0.32386549  0.07511212  0.75901552     0.16000
C59         C  0.02369181  0.20770835  0.75402474     0.87700
C60         C  0.00944045  0.24319860  0.73171025    -0.52500
C61         C  0.51313667  0.29015867  0.73454697     0.10700
C62         C  0.51474154  0.28467964  0.76612148     0.21600
C63         C  0.06843247  0.22732367  0.76622994    -0.53200
C64         C  0.06472663  0.27115426  0.77498983     0.10800
C65         C  0.46670378  0.21888637  0.75932198    -0.52700
C66         C  0.47063522  0.25914530  0.77297842     0.11300
H67         H  0.00460805  0.23491184  0.71010292     0.15900
H68         H  0.51883813  0.31667844  0.77754786     0.01600
H69         H  0.10124332  0.21129201  0.76312933     0.16200
H70         H  0.43654103  0.19776841  0.76058804     0.16000
N71         N  0.24101270  0.07976570  0.00163214    -0.35300
N72         N  0.23920550  0.00796061  0.95986519    -0.55900
N73         N  0.24387852  0.43631616  0.00189468    -0.35300
N74         N  0.25792425  0.01473180  0.04456180    -0.55900
C75         C  0.21962234  0.10077153  0.98018841     0.28200
C76         C  0.23495975  0.10522130  0.02440163     0.28200
C77         C  0.23402085  0.41083573  0.97971134     0.28200
C78         C  0.22594863  0.41513561  0.02402619     0.28200
C79         C  0.23904259  0.04538162  0.94369313     0.36900
C80         C  0.26650893  0.46170902  0.94450462     0.36900
C81         C  0.27027794  0.05236565  0.05803986     0.36900
C82         C  0.25411648  0.46806744  0.05918464     0.36900
C83         C  0.19976622  0.14036894  0.98947259    -0.20600
C84         C  0.20951799  0.14317998  0.01734122    -0.20600
C85         C  0.20892226  0.37333279  0.98768594    -0.20600
C86         C  0.20355200  0.37616856  0.01573034    -0.20600
C87         C  0.25398839  0.03470046  0.91747211    -0.21700
C88         C  0.28855153  0.47154945  0.91998093    -0.21700
C89         C  0.29667244  0.04133833  0.08109377    -0.21700
C90         C  0.27872649  0.47733330  0.08303554    -0.21700
C91         C  0.22298055  0.08810002  0.95210909    -0.17000
C92         C  0.25401588  0.09571296  0.05091176    -0.17000
C93         C  0.23708305  0.42540621  0.05154104    -0.17000
C94         C  0.25087092  0.41872103  0.95304686    -0.17000
H95         H  0.18129155  0.16540359  0.97734567     0.15900
H96         H  0.19939820  0.17027614  0.03076589     0.15900
H97         H  0.19690496  0.34616213  0.97477342     0.15900
H98         H  0.18715747  0.35118416  0.02876489     0.15900
H99         H  0.25703735  0.05662024  0.89959892     0.14200
H100        H  0.29975858  0.44825283  0.90443047     0.14200
H101        H  0.31203565  0.06395041  0.09588159     0.14200
H102        H  0.28965299  0.45398876  0.09912573     0.14200
H103        H  0.26337514  0.05270924  0.00004773     0.27400
H104        H  0.26778927  0.46223522  0.00257687     0.27400
O105        O  0.25999242  0.30588771  0.89811119    -0.78900
O106        O  0.19967611  0.24468643  0.78637608    -0.78900
O107        O  0.24847207  0.34626250  0.80911694    -0.78900
O108        O  0.13713735  0.21610507  0.86306021    -0.78900
O109        O  0.27395628  0.29911553  0.77863462    -0.79000
O110        O  0.18044345  0.26498103  0.88551866    -0.78900
O111        O  0.16260509  0.27473761  0.82132026    -0.78900
O112        O  0.24182158  0.35048704  0.86370975    -0.78900
C113        C  0.24612174  0.34381875  0.88926478     1.10800
C114        C  0.16879189  0.27061179  0.79557442     1.10700
C115        C  0.25782363  0.33784721  0.78453914     1.10800
C116        C  0.14270943  0.24267632  0.88302113     1.10700
O117        O  0.24565251  0.21909838  0.91214471    -0.78900
O118        O  0.32827999  0.23284220  0.81085375    -0.79000
O119        O  0.33144636  0.30725172  0.86943863    -0.78900
O120        O  0.18590799  0.18127216  0.82134204    -0.78900
O121        O  0.25850733  0.17752741  0.81537822    -0.78900
O122        O  0.31468254  0.23547892  0.87692258    -0.78900
O123        O  0.22248616  0.18326402  0.87426899    -0.78800
O124        O  0.34066390  0.30569822  0.81369982    -0.78900
Co125      Co  0.24889201  0.24861403  0.87783152     1.51500
Co126      Co  0.26470741  0.23918377  0.80007200     1.51700
Co127      Co  0.28764117  0.32440902  0.83885090     1.51600
Co128      Co  0.19363524  0.23317836  0.84753923     1.51500
O129        O  0.25214174  0.26520871  0.83767453    -1.40800
C130        C  0.23582176  0.18283314  0.89995443     1.10700
C131        C  0.35525463  0.26555503  0.80984856     1.10800
C132        C  0.34136247  0.26874235  0.87974263     1.10800
C133        C  0.22028983  0.15863878  0.81438003     1.10700
O134        O  0.25530478  0.32893523  0.20704229    -0.78900
O135        O  0.22095373  0.24518387  0.09696227    -0.78900
O136        O  0.24949899  0.34815089  0.13931357    -0.78900
O137        O  0.15844766  0.26201613  0.18225889    -0.78900
O138        O  0.25493526  0.31020713  0.10224138    -0.79000
O139        O  0.20107402  0.25588216  0.21946834    -0.78900
O140        O  0.16857585  0.25761275  0.12787640    -0.78900
O141        O  0.31209947  0.34468387  0.17966843    -0.78900
C142        C  0.28368002  0.35688801  0.19743345     1.10800
C143        C  0.18032590  0.25402593  0.10302430     1.10700
C144        C  0.24328613  0.34624047  0.11383841     1.10800
C145        C  0.16265032  0.26245699  0.20802500     1.10700
O146        O  0.27536156  0.19754218  0.20838483    -0.78900
O147        O  0.33355809  0.26928930  0.10757087    -0.79000
O148        O  0.34576112  0.25952177  0.15979869    -0.78900
O149        O  0.21708932  0.17218337  0.13356849    -0.78900
O150        O  0.28290542  0.19186034  0.11519764    -0.78900
O151        O  0.33272471  0.26971666  0.20361007    -0.78900
O152        O  0.20868023  0.17675961  0.19050697    -0.78800
O153        O  0.34184603  0.33540893  0.12668391    -0.78900
Co154      Co  0.26536940  0.26285877  0.20626522     1.51500
Co155      Co  0.27170421  0.25439523  0.12342491     1.51700
Co156      Co  0.29657975  0.30298079  0.14914726     1.51600
Co157      Co  0.19316369  0.22056021  0.15907322     1.51500
O158        O  0.25104157  0.26034303  0.16432020    -1.40800
C159        C  0.24404007  0.16880930  0.20538099     1.10700
C160        C  0.35349858  0.30768344  0.10825298     1.10800
C161        C  0.35922344  0.25863893  0.18451546     1.10800
C162        C  0.25046093  0.16437892  0.11771173     1.10700
O163        O  0.48949133  0.07807473  0.69538576    -0.78900
O164        O  0.42514027  0.50097970  0.61574502    -0.78900
O165        O  0.97578775  0.09468412  0.63207491    -0.78900
O166        O  0.40983622  0.42901074  0.68835522    -0.78900
O167        O  0.48887113  0.06934814  0.62107823    -0.79000
O168        O  0.42453131  0.01233919  0.69395899    -0.78900
O169        O  0.40921388  0.43435882  0.63262891    -0.78900
O170        O  0.98437764  0.09989541  0.68802423    -0.78900
C171        C  0.99869208  0.09674620  0.71252382     1.10800
C172        C  0.39779451  0.46807202  0.61741335     1.10700
C173        C  0.98378495  0.08831213  0.60691800     1.10800
C174        C  0.38488671  0.46321267  0.69210861     1.10700
O175        O  0.96740748  0.44336948  0.71708706    -0.78900
O176        O  0.04339659  0.49387333  0.60908683    -0.79000
O177        O  0.08051809  0.07434134  0.68430879    -0.78900
O178        O  0.50660469  0.40495793  0.63177743    -0.78900
O179        O  0.97452819  0.43544275  0.59773615    -0.78900
O180        O  0.02576926  0.51517091  0.70789809    -0.78900
O181        O  0.50845956  0.41188619  0.68827804    -0.78800
O182        O  0.07036553  0.06682555  0.62903865    -0.78900
Co183      Co  0.96010142  0.50318901  0.69581587     1.51500
Co184      Co  0.48173163  0.47219919  0.62664382     1.51700
Co185      Co  0.02530467  0.08018398  0.65869348     1.51600
Co186      Co  0.46180054  0.42605417  0.66084623     1.51500
O187        O  0.48674646  0.49408377  0.66354666    -1.40800
C188        C  0.49605562  0.41399279  0.71290158     1.10700
C189        C  0.08622980  0.02978401  0.62031955     1.10800
C190        C  0.10342929  0.03999943  0.69263430     1.10800
C191        C  0.49759892  0.40376044  0.60584490     1.10700
O192        O  0.05259993  0.50714618  0.28138980    -0.78900
O193        O  0.99931103  0.45288043  0.39840954    -0.78900
O194        O  0.09256971  0.99189211  0.37507015    -0.78900
O195        O  0.44084995  0.41788110  0.31975911    -0.78900
O196        O  0.03309117  0.51831052  0.40395284    -0.79000
O197        O  0.99690920  0.43481474  0.29417551    -0.78900
O198        O  0.47831339  0.41230437  0.37035655    -0.78900
O199        O  0.10045889  0.99113354  0.31842436    -0.78900
C200        C  0.09115183  0.50257161  0.29283412     1.10800
C201        C  0.48659243  0.40695591  0.39632763     1.10700
C202        C  0.07308696  0.50801799  0.39758105     1.10800
C203        C  0.47614159  0.39881970  0.31064804     1.10700
O204        O  0.44944428  0.48959547  0.28895135    -0.78900
O205        O  0.52278465  0.03971411  0.40452016    -0.79000
O206        O  0.07299812  0.08406126  0.31577986    -0.78900
O207        O  0.38996191  0.44163234  0.36530650    -0.78900
O208        O  0.42701881  0.49459741  0.38755572    -0.78900
O209        O  0.99973300  0.08794140  0.31438948    -0.78900
O210        O  0.40971909  0.50761341  0.32620340    -0.78800
O211        O  0.05574719  0.08418017  0.37043402    -0.78900
Co212      Co  0.98871180  0.50164335  0.29463571     1.51500
Co213      Co  0.98261285  0.51016463  0.37773738     1.51700
Co214      Co  0.07694425  0.03424563  0.34494907     1.51600
Co215      Co  0.44489536  0.46495225  0.34915900     1.51500
O216        O  0.00276462  0.50532477  0.33654657    -1.40800
C217        C  0.41393133  0.50574762  0.30017616     1.10700
C218        C  0.01577376  0.09834892  0.37619876     1.10800
C219        C  0.03731337  0.10650458  0.31031636     1.10800
C220        C  0.39200935  0.46868320  0.38537783     1.10700
N221        N  0.50239220  0.16818793  0.50413458    -0.35300
N222        N  0.50699661  0.23494146  0.45889825    -0.55900
N223        N  0.50862514  0.30196840  0.50025429    -0.35300
N224        N  0.50910845  0.23808032  0.54513530    -0.55900
C225        C  0.51322432  0.14217454  0.48248053     0.28200
C226        C  0.51180748  0.14389093  0.52731728     0.28200
C227        C  0.51725761  0.32618637  0.47725213     0.28200
C228        C  0.52131088  0.32763764  0.52168119     0.28200
C229        C  0.49470007  0.19760317  0.44519950     0.36900
C230        C  0.49214222  0.27049303  0.44355978     0.36900
C231        C  0.49539332  0.20326603  0.56099127     0.36900
C232        C  0.49792667  0.27573529  0.55874502     0.36900
C233        C  0.52963023  0.10073123  0.49205444    -0.20600
C234        C  0.52839913  0.10173115  0.52039731    -0.20600
C235        C  0.53726019  0.36708965  0.48402027    -0.20600
C236        C  0.53997892  0.36793376  0.51228114    -0.20600
C237        C  0.47261638  0.20929078  0.42068042    -0.21700
C238        C  0.47048013  0.25576580  0.41980046    -0.21700
C239        C  0.47587565  0.21853833  0.58506976    -0.21700
C240        C  0.47718619  0.26487306  0.58355533    -0.21700
C241        C  0.50467256  0.15340071  0.45448167    -0.17000
C242        C  0.50331892  0.15811555  0.55442322    -0.17000
C243        C  0.50750170  0.31936913  0.54874259    -0.17000
C244        C  0.49929317  0.31561358  0.45127064    -0.17000
H245        H  0.54068725  0.07237097  0.47992560     0.15900
H246        H  0.53838540  0.07447754  0.53429726     0.15900
H247        H  0.54620933  0.39451113  0.47011121     0.12700
H248        H  0.55129330  0.39617681  0.52454625     0.15900
H249        H  0.45856599  0.18670663  0.40540117     0.14200
H250        H  0.45455033  0.27605995  0.40368298     0.14200
H251        H  0.46188016  0.19844421  0.60176667     0.14200
H252        H  0.46421186  0.28768718  0.59886967     0.14200
H253        H  0.48459385  0.19853150  0.50310513     0.27400
H254        H  0.48667085  0.27441898  0.50135005     0.27400
N255        N  0.17234491  0.50348346  0.50212476    -0.35300
N256        N  0.23930093  0.48892508  0.54505374    -0.55900
N257        N  0.31134388  0.49328185  0.50273362    -0.35300
N258        N  0.24377085  0.50236955  0.45978464    -0.55900
C259        C  0.14404392  0.49461575  0.52341101     0.28200
C260        C  0.14670408  0.50574984  0.47890484     0.28200
C261        C  0.33517364  0.48032940  0.52554796     0.28200
C262        C  0.33685384  0.48308438  0.48036975     0.28200
C263        C  0.20239616  0.49512863  0.56111949     0.36900
C264        C  0.27626612  0.49349636  0.56160677     0.36900
C265        C  0.20887575  0.51969087  0.44476645     0.36900
C266        C  0.28144270  0.50774087  0.44429844     0.36900
C267        C  0.09960997  0.49163177  0.51349932    -0.20600
C268        C  0.10124550  0.49883467  0.48547338    -0.20600
C269        C  0.37656337  0.46208723  0.51766802    -0.20600
C270        C  0.37750000  0.46355880  0.48922734    -0.20600
C271        C  0.21612870  0.50195930  0.58819583    -0.21700
C272        C  0.26265579  0.50253819  0.58831463    -0.21700
C273        C  0.22431900  0.53553488  0.41945788    -0.21700
C274        C  0.27036631  0.52829068  0.41925923    -0.21700
C275        C  0.15655765  0.49383885  0.55170568    -0.17000
C276        C  0.16275900  0.51812748  0.45247028    -0.17000
C277        C  0.32541054  0.49309983  0.45233969    -0.17000
C278        C  0.32189861  0.48693229  0.55332285    -0.17000
H279        H  0.06883994  0.48665108  0.52526668     0.15900
H280        H  0.07191974  0.50020286  0.47176185     0.15900
H281        H  0.40334521  0.44894771  0.53105493     0.15900
H282        H  0.40518970  0.45186111  0.47657607     0.15900
H283        H  0.19543421  0.50662187  0.60623191     0.14200
H284        H  0.28358434  0.50877742  0.60634470     0.14200
H285        H  0.20449520  0.55064060  0.40278478     0.14200
H286        H  0.29297430  0.53765290  0.40265259     0.14200
H287        H  0.20613402  0.51312435  0.50345515     0.27400
H288        H  0.28203588  0.51288437  0.50287695     0.27400
C289        C  0.99995682  0.21559054  0.26945198     0.87700
C290        C  0.04221286  0.22187813  0.25151888    -0.52500
C291        C  0.03982376  0.25752158  0.23346973     0.10700
C292        C  0.50693059  0.28486404  0.23737254     0.21600
C293        C  0.49387460  0.25058332  0.28267612    -0.53200
C294        C  0.49922178  0.29075319  0.26848694     0.10800
C295        C  0.46188997  0.21632430  0.24128277    -0.52700
C296        C  0.46656080  0.25615763  0.22729191     0.11300
H297        H  0.07158479  0.19970497  0.25225001     0.15900
H298        H  0.51070657  0.31732042  0.22584433     0.01600
H299        H  0.48908345  0.24867929  0.30484520     0.16200
H300        H  0.43354715  0.19348144  0.23759441     0.16000
C301        C  0.50207667  0.33640909  0.28109242    -0.15200
C302        C  0.47388745  0.35141056  0.30074418    -0.30300
H303        H  0.00421106  0.36995880  0.25885678     0.13900
H304        H  0.44688446  0.32957804  0.30828398     0.14400
C305        C  0.00134967  0.17529407  0.28953426    -0.15200
C306        C  0.03943099  0.15188833  0.29695911    -0.30300
H307        H  0.46042159  0.14298634  0.27231551     0.13900
H308        H  0.07293279  0.16447807  0.29176492     0.14400
C309        C  0.01160848  0.13845458  0.39371520    -0.15200
C310        C  0.98563739  0.13689543  0.41651166    -0.30300
H311        H  0.03612413  0.16561185  0.39107603     0.13900
H312        H  0.48895798  0.08450848  0.44120376     0.14400
C313        C  0.48316412  0.35447179  0.43454068    -0.15200
C314        C  0.49414830  0.36179676  0.40821873    -0.30300
H315        H  0.46676661  0.38154089  0.44578203     0.13900
H316        H  0.04186219  0.34918039  0.39050080     0.14400
C317        C  0.10508922  0.49632676  0.41925250    -0.15200
C318        C  0.12908713  0.52910386  0.43093008    -0.30300
H319        H  0.10830672  0.46134614  0.42610252     0.13900
H320        H  0.09528584  0.04514041  0.44856380     0.14400
C321        C  0.35512267  0.47099993  0.40594042    -0.15200
C322        C  0.36179761  0.49008064  0.43092648    -0.30300
H323        H  0.32270716  0.45512825  0.40106783     0.13900
H324        H  0.39641162  0.03101651  0.44267099     0.14400
C325        C  0.12533655  0.03209930  0.60181050    -0.15200
C326        C  0.11919242  0.49178362  0.57225921    -0.30300
H327        H  0.14176838  0.06474979  0.59913891     0.13900
H328        H  0.09515067  0.46393808  0.57111618     0.14400
C329        C  0.35855116  0.46555251  0.59845792    -0.15200
C330        C  0.35890929  0.48897447  0.57443015    -0.30300
H331        H  0.33139927  0.44168976  0.60287057     0.13900
H332        H  0.40089104  0.03168539  0.57671121     0.14400
C333        C  0.98239284  0.12722144  0.58746945    -0.15200
C334        C  0.97353015  0.12355924  0.56022271    -0.30300
H335        H  0.99262620  0.15932544  0.59602855     0.13900
H336        H  0.48001959  0.09489426  0.57313983     0.14400
C337        C  0.49605908  0.35905034  0.56488632    -0.15200
C338        C  0.51331735  0.36565648  0.58994628    -0.30300
H339        H  0.47364558  0.38404207  0.55522381     0.13900
H340        H  0.02640962  0.33474534  0.59659026     0.14400
C341        C  0.07890542  0.26921137  0.21550295    -0.15200
C342        C  0.12193571  0.26585437  0.22550982    -0.30300
H343        H  0.07240855  0.27692709  0.19384791     0.13900
H344        H  0.12724495  0.26032529  0.24753542     0.14400
C345        C  0.40618301  0.24647811  0.19198733    -0.15200
C346        C  0.43014173  0.27357227  0.20882359    -0.30300
H347        H  0.41813826  0.21268441  0.18742705     0.13900
H348        H  0.41876672  0.30802558  0.21207120     0.14400
C349        C  0.25725501  0.13242753  0.07163362    -0.15200
C350        C  0.24748498  0.12625621  0.09865580    -0.30300
H351        H  0.26659455  0.16594746  0.06420537     0.13900
H352        H  0.23286626  0.09463765  0.10592072     0.14400
C353        C  0.24042141  0.38617352  0.07050755    -0.15200
C354        C  0.22950421  0.38581608  0.09729543    -0.30300
H355        H  0.25423399  0.35569037  0.06146493     0.13900
H356        H  0.21591881  0.41562164  0.10714786     0.14400
C357        C  0.21127999  0.12265168  0.93081047    -0.15200
C358        C  0.24367070  0.14056968  0.91488670    -0.30300
H359        H  0.17753807  0.13780574  0.93090379     0.13900
H360        H  0.27858987  0.12859497  0.91670202     0.14400
C361        C  0.23817190  0.38125571  0.90819238    -0.15200
C362        C  0.25344365  0.37956971  0.93434615    -0.30300
H363        H  0.22251908  0.41195947  0.90002121     0.13900
H364        H  0.26772985  0.34833595  0.94269645     0.14400
C365        C  0.02806676  0.15936369  0.74272887    -0.15200
C366        C  0.99292505  0.13737809  0.73034465    -0.30300
H367        H  0.06146473  0.14350453  0.74306462     0.13900
H368        H  0.56268074  0.16365943  0.70390743     0.14400
C369        C  0.51441808  0.33398822  0.71962531    -0.15200
C370        C  0.50293610  0.37389656  0.73088697    -0.30300
H371        H  0.99756832  0.31971255  0.70059618     0.13900
H372        H  0.49317389  0.37595010  0.75235576     0.14400
C373        C  0.10160646  0.30458294  0.77001624    -0.15200
C374        C  0.14612372  0.30166448  0.77606205    -0.30300
H375        H  0.09147279  0.33413428  0.75787831     0.13900
H376        H  0.16771454  0.32772403  0.76728507     0.14400
C377        C  0.40253030  0.25359127  0.80221950    -0.15200
C378        C  0.43194470  0.27989582  0.78836693    -0.30300
H379        H  0.41087893  0.21794359  0.80449899     0.13900
H380        H  0.42553601  0.31586623  0.78599882     0.14400
C381        C  0.31023647  0.49599542  0.70233061    -0.15200
C382        C  0.33732028  0.45922276  0.70224444    -0.30300
H383        H  0.35899241  0.04460141  0.71778078     0.13900
H384        H  0.32712320  0.42855784  0.71305693     0.14400
C385        C  0.17637532  0.01235771  0.71371573    -0.15200
C386        C  0.14987459  0.04668783  0.70418999    -0.30300
H387        H  0.15359984  0.47834760  0.68850184     0.13900
H388        H  0.16055353  0.08133883  0.70748384     0.14400
C389        C  0.25371019  0.09113778  0.79361551    -0.15200
C390        C  0.21633408  0.11242532  0.80307994    -0.30300
H391        H  0.28673482  0.10678850  0.79713281     0.13900
H392        H  0.18264659  0.09821653  0.79976737     0.14400
C393        C  0.23198255  0.41418332  0.77211296    -0.15200
C394        C  0.25265332  0.37571074  0.76397375    -0.30300
H395        H  0.21599942  0.41441689  0.79225292     0.13900
H396        H  0.26952443  0.37413261  0.74418073     0.14400
C397        C  0.12416107  0.22326287  0.07228883    -0.15200
C398        C  0.14650761  0.25966409  0.08110388    -0.30300
H399        H  0.13083633  0.19053915  0.08197949     0.13900
H400        H  0.13920347  0.29312995  0.07272322     0.14400
C401        C  0.38882534  0.31810774  0.08753952    -0.15200
C402        C  0.38708417  0.29759387  0.06277630    -0.30300
H403        H  0.41646106  0.34101240  0.09264844     0.13900
H404        H  0.35701839  0.27785843  0.05753918     0.14400
C405        C  0.11471921  0.23123153  0.92962493    -0.15200
C406        C  0.10691561  0.24691953  0.90380056    -0.30300
H407        H  0.14885040  0.21950703  0.93495530     0.13900
H408        H  0.07332621  0.25852676  0.89735324     0.14400
C409        C  0.37677403  0.25244692  0.92464968    -0.15200
C410        C  0.38142879  0.26515221  0.89804340    -0.30300
H411        H  0.34328203  0.24290870  0.93213403     0.13900
H412        H  0.41329692  0.27989581  0.89113236     0.14400
C413        C  0.33301984  0.50791450  0.28809318    -0.15200
C414        C  0.37605597  0.51915225  0.28207065    -0.30300
H415        H  0.32578283  0.48928732  0.30701537     0.13900
H416        H  0.33812931  0.93437430  0.29204501     0.14400
C417        C  0.17438428  0.50062373  0.28526596    -0.15200
C418        C  0.13154213  0.50036052  0.27522823    -0.30300
H419        H  0.18137065  0.49558320  0.30715015     0.13900
H420        H  0.12242073  0.00638997  0.25207352     0.14400
C421        C  0.25189796  0.08582974  0.21153923    -0.15200
C422        C  0.24700402  0.12717987  0.22227165    -0.30300
H423        H  0.25376866  0.08210626  0.18930087     0.13900
H424        H  0.24754140  0.13099850  0.24455933     0.14400
C425        C  0.28330924  0.40426341  0.20596019    -0.15200
C426        C  0.25945327  0.41818136  0.22768053    -0.30300
H427        H  0.30302169  0.42838673  0.19393014     0.13900
H428        H  0.24246467  0.39379200  0.24097132     0.14400
C429        C  0.25319356  0.54776173  0.22925323     0.87700
C430        C  0.25564258  0.50099914  0.21610195    -0.52500
C431        C  0.26510157  0.96266762  0.23255225     0.10700
C432        C  0.25779778  0.97375778  0.26310072     0.21600
C433        C  0.21155176  0.54549894  0.24801060    -0.53200
C434        C  0.21186436  0.99902097  0.26313596     0.10800
C435        C  0.29460007  0.54914689  0.24885851    -0.52700
C436        C  0.29430199  0.00966881  0.26947573     0.11300
H437        H  0.26673832  0.99757955  0.19296594     0.15900
H438        H  0.25883432  0.94381787  0.27714545     0.01600
H439        H  0.18326403  0.56910317  0.24637342     0.16200
H440        H  0.32057667  0.57520223  0.24780184     0.16000
N441        N  0.45394641  0.78402124  0.99088095    -0.35300
N442        N  0.01334409  0.72935061  0.04090825    -0.55900
N443        N  0.08107258  0.72302144  0.99622132    -0.35300
N444        N  0.01003713  0.73167233  0.95532500    -0.55900
C445        C  0.43179058  0.80234798  0.01234049     0.28200
C446        C  0.42842117  0.79202374  0.96794167     0.28200
C447        C  0.10886836  0.72867457  0.01828406     0.28200
C448        C  0.10662656  0.72799922  0.97324535     0.28200
C449        C  0.48776091  0.78224836  0.04885469     0.36900
C450        C  0.05097889  0.71674313  0.05535956     0.36900
C451        C  0.47854753  0.75439038  0.93433867     0.36900
C452        C  0.04445489  0.71818907  0.93900943     0.36900
C453        C  0.39206700  0.82302353  0.00293148    -0.20600
C454        C  0.39007274  0.81676274  0.97482603    -0.20600
C455        C  0.15294310  0.73678882  0.00916916    -0.20600
C456        C  0.15143226  0.73652327  0.98078385    -0.20600
C457        C  0.49901949  0.76243702  0.07404238    -0.21700
C458        C  0.03889224  0.70142717  0.08145730    -0.21700
C459        C  0.48591178  0.72779510  0.91146855    -0.21700
C460        C  0.02754362  0.70155223  0.91440215    -0.21700
C461        C  0.44326234  0.79469229  0.04035471    -0.17000
C462        C  0.43626677  0.77309474  0.94177760    -0.17000
C463        C  0.09103719  0.72196617  0.94581324    -0.17000
C464        C  0.09631541  0.72174429  0.04618768    -0.17000
H465        H  0.36640907  0.83941555  0.01520324     0.15900
H466        H  0.36259209  0.82759298  0.96121018     0.15900
H467        H  0.18354420  0.74105792  0.02148462     0.15900
H468        H  0.18027826  0.74104845  0.96728473     0.15900
H469        H  0.47632740  0.75281042  0.09054900     0.14200
H470        H  0.06116616  0.68944726  0.09791748     0.14200
H471        H  0.46098760  0.71617982  0.89654890     0.14200
H472        H  0.04666329  0.68820013  0.89735110     0.14200
H473        H  0.48077723  0.76122529  0.99259400     0.27400
H474        H  0.04793838  0.71100308  0.99704113     0.27400
C475        C  0.23731561  0.54225768  0.76027271     0.87700
C476        C  0.19314998  0.54079117  0.74292528    -0.52500
C477        C  0.21497955  0.01983847  0.73342063     0.10700
C478        C  0.25527334  0.98651266  0.73795806     0.21600
C479        C  0.23815906  0.49665852  0.77558280    -0.53200
C480        C  0.25078579  0.97015019  0.76828461     0.10800
C481        C  0.27571719  0.53930058  0.73939618    -0.52700
C482        C  0.29849852  0.01672649  0.73792730     0.11300
H483        H  0.16709747  0.56673165  0.74402515     0.15900
H484        H  0.25604565  0.95871179  0.72279809     0.01600
H485        H  0.24612208  0.99918560  0.80900212     0.16200
H486        H  0.30324805  0.56380103  0.73837150     0.16000
C487        C  0.00527898  0.70483563  0.72144149     0.87700
C488        C  0.00693875  0.75245461  0.70793231    -0.52500
C489        C  0.50758074  0.78513006  0.73250472     0.10700
C490        C  0.50186918  0.77580750  0.76378669     0.21600
C491        C  0.04516089  0.70454294  0.74242547    -0.53200
C492        C  0.04443338  0.73930076  0.76076892     0.10800
C493        C  0.46211546  0.70665703  0.75024265    -0.52700
C494        C  0.45906713  0.74500629  0.76577273     0.11300
H495        H  0.00995110  0.75797370  0.68583134     0.15900
H496        H  0.50005870  0.80644770  0.77664838     0.01600
H497        H  0.07270093  0.68004434  0.74193444     0.16200
H498        H  0.43584447  0.68086428  0.74977284     0.16000
N499        N  0.26989825  0.57112598  0.99922242    -0.35300
N500        N  0.25843416  0.50005736  0.95845154    -0.55900
N501        N  0.25976444  0.94441507  0.00299089    -0.35300
N502        N  0.24889930  0.50598292  0.04365763    -0.55900
C503        C  0.26054199  0.59546691  0.97588283     0.28200
C504        C  0.26114524  0.59763202  0.02116277     0.28200
C505        C  0.25095475  0.91677382  0.98159520     0.28200
C506        C  0.25454792  0.91985831  0.02645740     0.28200
C507        C  0.27446639  0.53422875  0.94272613     0.36900
C508        C  0.25493042  0.97379083  0.94427398     0.36900
C509        C  0.26979444  0.53936764  0.05766500     0.36900
C510        C  0.27561290  0.97986266  0.05916945     0.36900
C511        C  0.24508276  0.63796389  0.98320584    -0.20600
C512        C  0.24609219  0.63951632  0.01173858    -0.20600
C513        C  0.23972475  0.87412899  0.99158452    -0.20600
C514        C  0.24198010  0.87606551  0.01990688    -0.20600
C515        C  0.29286247  0.51768603  0.91863912    -0.21700
C516        C  0.26550968  0.98977463  0.91815331    -0.21700
C517        C  0.28872029  0.52258667  0.08203635    -0.21700
C518        C  0.29922360  0.99513467  0.08212383    -0.21700
C519        C  0.26767593  0.58017549  0.94845358    -0.17000
C520        C  0.26882995  0.58512964  0.04926295    -0.17000
C521        C  0.26708814  0.93453608  0.05307218    -0.17000
C522        C  0.25692172  0.92829059  0.95343579    -0.17000
H523        H  0.23412218  0.66514921  0.96957064     0.15900
H524        H  0.23627030  0.66801555  0.02412461     0.15900
H525        H  0.23157309  0.84441676  0.97971641     0.15900
H526        H  0.23663032  0.84784833  0.03389776     0.15900
H527        H  0.30762298  0.53694254  0.90183069     0.14200
H528        H  0.28022921  0.97157914  0.90123854     0.14200
H529        H  0.30830148  0.54079742  0.09732510     0.14200
H530        H  0.31647902  0.97513779  0.09790072     0.14200
H531        H  0.28556180  0.53955382  0.00025655     0.27400
H532        H  0.27500316  0.97605999  0.00152226     0.27400
O533        O  0.25818794  0.80655815  0.90815032    -0.78900
O534        O  0.16852055  0.76260857  0.80655653    -0.78900
O535        O  0.30318797  0.83761734  0.81540560    -0.78900
O536        O  0.18014052  0.70354888  0.87533533    -0.78900
O537        O  0.23126901  0.83181968  0.80513484    -0.79000
O538        O  0.18780940  0.77767159  0.87535386    -0.78900
O539        O  0.16939303  0.69078003  0.81959013    -0.78900
O540        O  0.26781090  0.84014312  0.86778906    -0.78900
C541        C  0.26055184  0.84254518  0.89411322     1.10800
C542        C  0.14929396  0.72440419  0.80827040     1.10700
C543        C  0.26693667  0.85554917  0.80654603     1.10800
C544        C  0.16606832  0.74247505  0.88232363     1.10700
O545        O  0.25204123  0.71935524  0.90201029    -0.78900
O546        O  0.29958961  0.76661142  0.78430873    -0.79000
O547        O  0.35679772  0.81825720  0.85880389    -0.78900
O548        O  0.26033084  0.65790619  0.81571141    -0.78900
O549        O  0.23275578  0.70206770  0.78243895    -0.78900
O550        O  0.32504103  0.76277062  0.88256744    -0.78900
O551        O  0.27240217  0.66790796  0.87279956    -0.78800
O552        O  0.34105728  0.75103170  0.82184542    -0.78900
Co553      Co  0.25497800  0.77159539  0.87598631     1.51500
Co554      Co  0.23394272  0.76553251  0.79755390     1.51700
Co555      Co  0.30307423  0.79035239  0.84496824     1.51600
Co556      Co  0.22348774  0.68430147  0.84543028     1.51500
O557        O  0.25043585  0.74767819  0.83749186    -1.40800
C558        C  0.26878527  0.68112169  0.89745195     1.10700
C559        C  0.33692843  0.75343132  0.79574065     1.10800
C560        C  0.35880247  0.79000927  0.87851694     1.10800
C561        C  0.24778193  0.66388968  0.79079903     1.10700
O562        O  0.26154891  0.82868453  0.19990059    -0.78900
O563        O  0.23224751  0.73789245  0.09107197    -0.78900
O564        O  0.26087149  0.84377091  0.12997247    -0.78900
O565        O  0.16649054  0.76055662  0.17554496    -0.78900
O566        O  0.26722544  0.80300653  0.09387801    -0.79000
O567        O  0.20923554  0.75482995  0.21271115    -0.78900
O568        O  0.17931939  0.75474917  0.12088409    -0.78900
O569        O  0.31875851  0.84458794  0.17272528    -0.78900
C570        C  0.29003226  0.85669284  0.19046630     1.10800
C571        C  0.19162562  0.74837909  0.09636266     1.10700
C572        C  0.25504022  0.83957819  0.10453198     1.10800
C573        C  0.17100290  0.76175840  0.20134781     1.10700
O574        O  0.28410875  0.69816048  0.20223736    -0.78900
O575        O  0.34565389  0.76408008  0.10287405    -0.79000
O576        O  0.35484112  0.75616915  0.15591897    -0.78900
O577        O  0.22738222  0.66925855  0.12823849    -0.78900
O578        O  0.29557347  0.68595279  0.11223840    -0.78900
O579        O  0.33962575  0.77167187  0.19853000    -0.78900
O580        O  0.21748647  0.67624311  0.18477050    -0.78800
O581        O  0.35393203  0.83056693  0.12167203    -0.78900
Co582      Co  0.27291345  0.76298100  0.19986431     1.51500
Co583      Co  0.28269076  0.74931069  0.11763738     1.51700
Co584      Co  0.30677696  0.79975532  0.14294612     1.51600
Co585      Co  0.20236724  0.71871564  0.15280033     1.51500
O586        O  0.25979044  0.75902042  0.15786454    -1.40800
C587        C  0.25283732  0.66927886  0.19979852     1.10700
C588        C  0.36658760  0.80201085  0.10405851     1.10800
C589        C  0.36635951  0.75621756  0.18094712     1.10800
C590        C  0.26236261  0.65922133  0.11414195     1.10700
O591        O  0.45672678  0.57214673  0.68923287    -0.78900
O592        O  0.42925543  0.01830447  0.62449676    -0.78900
O593        O  0.98369328  0.56607297  0.61788351    -0.78900
O594        O  0.42284517  0.93931872  0.69021688    -0.78900
O595        O  0.45732475  0.53208124  0.61343931    -0.79000
O596        O  0.40245480  0.50160328  0.68991132    -0.78900
O597        O  0.42049819  0.94668655  0.63410785    -0.78900
O598        O  0.01972001  0.57953314  0.67124705    -0.78900
C599        C  0.98202920  0.59256912  0.68077642     1.10800
C600        C  0.40611120  0.98332395  0.62270388     1.10700
C601        C  0.97213329  0.56111742  0.59202514     1.10800
C602        C  0.40306131  0.97581416  0.69653062     1.10700
O603        O  0.02495251  0.93033705  0.69493664    -0.78900
O604        O  0.06587791  0.99275494  0.62481970    -0.79000
O605        O  0.06725832  0.49577763  0.67195491    -0.78900
O606        O  0.51453919  0.91036270  0.63220143    -0.78900
O607        O  0.99830187  0.95935126  0.59184749    -0.78900
O608        O  0.08518558  0.00144473  0.69411368    -0.78900
O609        O  0.51767892  0.90962981  0.68870522    -0.78800
O610        O  0.07290008  0.55527545  0.62804350    -0.78900
Co611      Co  0.02027949  0.99675403  0.70356616     1.51500
Co612      Co  0.49268139  0.00629335  0.62688784     1.51700
Co613      Co  0.02393270  0.52587390  0.64572096     1.51600
Co614      Co  0.47293676  0.93129428  0.66178198     1.51500
O615        O  0.50718557  0.99399292  0.66591662    -1.40800
C616        C  0.50647225  0.91244112  0.71359749     1.10700
C617        C  0.07470127  0.52478090  0.61000742     1.10800
C618        C  0.06422320  0.50451762  0.69748894     1.10800
C619        C  0.50199469  0.91594367  0.60730589     1.10700
O620        O  0.05538374  0.01898200  0.28526540    -0.78900
O621        O  0.00976106  0.95026823  0.39792000    -0.78900
O622        O  0.08510081  0.50638868  0.37272791    -0.78900
O623        O  0.51204298  0.91121323  0.33431053    -0.78900
O624        O  0.04635605  0.02325708  0.40424657    -0.79000
O625        O  0.98075501  0.96458737  0.28319904    -0.78900
O626        O  0.44435797  0.88933492  0.36988788    -0.78900
O627        O  0.09562023  0.50363364  0.31858344    -0.78900
C628        C  0.09260994  0.99993331  0.29318830     1.10800
C629        C  0.46479938  0.89194390  0.39296072     1.10700
C630        C  0.08456458  0.00475306  0.39921409     1.10800
C631        C  0.50608236  0.90471074  0.30886739     1.10700
O632        O  0.42054130  0.00512724  0.30872706    -0.78900
O633        O  0.50471235  0.53114587  0.40618080    -0.79000
O634        O  0.04600826  0.58887999  0.31091837    -0.78900
O635        O  0.40725153  0.97419913  0.37054770    -0.78900
O636        O  0.44162277  0.01025326  0.40271920    -0.78900
O637        O  0.98062569  0.56729543  0.29154125    -0.78900
O638        O  0.41765514  0.93490326  0.32181817    -0.78800
O639        O  0.03734629  0.59273999  0.36794180    -0.78900
Co640      Co  0.99289479  0.02478988  0.30291341     1.51500
Co641      Co  0.99147769  0.01060000  0.37951242     1.51700
Co642      Co  0.06097733  0.54456366  0.34204059     1.51600
Co643      Co  0.46381717  0.94505464  0.35253227     1.51500
O644        O  0.01465776  0.00198731  0.34150281    -1.40800
C645        C  0.39863703  0.96876260  0.31035489     1.10700
C646        C  0.00442905  0.60053596  0.38419152     1.10800
C647        C  0.01161601  0.59632933  0.29515487     1.10800
C648        C  0.40523449  0.99534037  0.39322843     1.10700
N649        N  0.47229365  0.66715269  0.51307826    -0.35300
N650        N  0.46137136  0.72468810  0.46463824    -0.55900
N651        N  0.46637015  0.80468184  0.49960706    -0.35300
N652        N  0.48316980  0.74830210  0.54766628    -0.55900
C653        C  0.48017554  0.63696123  0.49282035     0.28200
C654        C  0.48902947  0.64920782  0.53691921     0.28200
C655        C  0.46732235  0.82371907  0.47405331     0.28200
C656        C  0.47991030  0.83642720  0.51795043     0.28200
C657        C  0.45121769  0.68399529  0.45377274     0.36900
C658        C  0.44420193  0.75620356  0.44696515     0.36900
C659        C  0.47849432  0.71571399  0.56727825     0.36900
C660        C  0.47589686  0.78832416  0.56023136     0.36900
C661        C  0.50166373  0.59916984  0.50405510    -0.20600
C662        C  0.50715868  0.60682316  0.53185263    -0.20600
C663        C  0.48179656  0.86826229  0.47621491    -0.20600
C664        C  0.48994876  0.87612101  0.50380666    -0.20600
C665        C  0.42709304  0.68979388  0.42919860    -0.21700
C666        C  0.42317650  0.73552919  0.42471335    -0.21700
C667        C  0.46822619  0.73492592  0.59235399    -0.21700
C668        C  0.46596418  0.78078115  0.58783812    -0.21700
C669        C  0.46699420  0.64208143  0.46472539    -0.17000
C670        C  0.48630502  0.66915148  0.56332940    -0.17000
C671        C  0.47989386  0.83146674  0.54718822    -0.17000
C672        C  0.45076353  0.80321304  0.44949634    -0.17000
H673        H  0.51227412  0.56910984  0.49341687     0.15900
H674        H  0.52289808  0.58376052  0.54661787     0.15900
H675        H  0.48509236  0.89320408  0.45986828     0.12700
H676        H  0.50096275  0.90786885  0.51248287     0.15900
H677        H  0.41407863  0.66382161  0.41571665     0.14200
H678        H  0.40704303  0.75168364  0.40698350     0.14200
H679        H  0.46266744  0.71764126  0.61184905     0.14200
H680        H  0.45765220  0.80551925  0.60322555     0.14200
H681        H  0.45282114  0.69642989  0.51140342     0.27400
H682        H  0.45147094  0.77380736  0.50443341     0.27400
N683        N  0.17932600  0.01098624  0.51260560    -0.35300
N684        N  0.25151488  0.01195228  0.55308169    -0.55900
N685        N  0.31840229  0.01784823  0.50846264    -0.35300
N686        N  0.24560286  0.01118263  0.46734057    -0.55900
C687        C  0.15539828  0.00000759  0.53550841     0.28200
C688        C  0.15113555  0.00616503  0.49065791     0.28200
C689        C  0.34547663  0.00910180  0.53082266     0.28200
C690        C  0.34250095  0.00767849  0.48553156     0.28200
C691        C  0.21593903  0.01595374  0.57027360     0.36900
C692        C  0.28896142  0.02257223  0.56786839     0.36900
C693        C  0.20711296  0.02271909  0.45324424     0.36900
C694        C  0.28109062  0.02062997  0.45047295     0.36900
C695        C  0.11122508  0.98860528  0.52789262    -0.20600
C696        C  0.10851026  0.99251635  0.49964004    -0.20600
C697        C  0.38754119  0.99397869  0.52201391    -0.20600
C698        C  0.38564077  0.99289846  0.49360231    -0.20600
C699        C  0.23104547  0.02905071  0.59620739    -0.21700
C700        C  0.27714446  0.03450790  0.59443056    -0.21700
C701        C  0.21835793  0.03943454  0.42731665    -0.21700
C702        C  0.26504261  0.03801865  0.42555904    -0.21700
C703        C  0.17070042  0.00468994  0.56314930    -0.17000
C704        C  0.16185694  0.01686925  0.46298589    -0.17000
C705        C  0.32768307  0.01383713  0.45751639    -0.17000
C706        C  0.33372020  0.01506368  0.55896390    -0.17000
H707        H  0.08313012  0.98040257  0.54133467     0.15900
H708        H  0.07818448  0.98702098  0.48722083     0.15900
H709        H  0.41656938  0.98423834  0.53472559     0.15900
H710        H  0.41303994  0.98209087  0.48044358     0.15900
H711        H  0.21165820  0.03355636  0.61479456     0.14200
H712        H  0.29953319  0.04424374  0.61122199     0.14200
H713        H  0.19541771  0.05203822  0.41137360     0.14200
H714        H  0.28474997  0.04988177  0.40818736     0.14200
H715        H  0.21110371  0.02620929  0.51189139     0.27400
H716        H  0.28698526  0.03404786  0.50881368     0.27400
C717        C  0.01690911  0.72150062  0.26980716     0.87700
C718        C  0.05289615  0.72267993  0.24733827    -0.52500
C719        C  0.05130332  0.76039278  0.23079600     0.10700
C720        C  0.51089257  0.78355842  0.23477792     0.21600
C721        C  0.49719290  0.75856753  0.28189201    -0.53200
C722        C  0.50285366  0.79574023  0.26495318     0.10800
C723        C  0.46489706  0.71626678  0.24328551    -0.52700
C724        C  0.47049204  0.75344139  0.22657887     0.11300
H725        H  0.07877402  0.69667937  0.24536931     0.15900
H726        H  0.51546020  0.81344141  0.22096054     0.01600
H727        H  0.49050234  0.76116005  0.30380441     0.16200
H728        H  0.43652524  0.69297650  0.24112630     0.16000
C729        C  0.50006410  0.84394702  0.27363620    -0.15200
C730        C  0.51337704  0.85802444  0.29873961    -0.30300
H731        H  0.03943798  0.84988287  0.30092322     0.13900
H732        H  0.52739094  0.83346467  0.31336465     0.14400
C733        C  0.02019296  0.67946745  0.28813163    -0.15200
C734        C  0.00855341  0.63851478  0.27856901    -0.30300
H735        H  0.48999599  0.67679908  0.30729569     0.13900
H736        H  0.99445800  0.63590288  0.25780933     0.14400
C737        C  0.00753880  0.63964508  0.40283373    -0.15200
C738        C  0.99033670  0.63759916  0.42866051    -0.30300
H739        H  0.02953137  0.66750434  0.39686899     0.13900
H740        H  0.46296147  0.56862578  0.45376255     0.14400
C741        C  0.43944088  0.83259243  0.42523799    -0.15200
C742        C  0.47266549  0.85271594  0.41112309    -0.30300
H743        H  0.40397972  0.83990737  0.42036674     0.13900
H744        H  0.05675697  0.84761438  0.39838493     0.14400
C745        C  0.12028814  0.99803526  0.42031320    -0.15200
C746        C  0.12279209  0.02226335  0.44337729    -0.30300
H747        H  0.14769169  0.97469720  0.41566457     0.13900
H748        H  0.12643828  0.56375540  0.42334696     0.14400
C749        C  0.36262829  0.99898317  0.40993077    -0.15200
C750        C  0.36429596  0.01653160  0.43580606    -0.30300
H751        H  0.33190596  0.98243600  0.40255748     0.13900
H752        H  0.39545965  0.50272138  0.43632917     0.14400
C753        C  0.11272018  0.52491168  0.59047352    -0.15200
C754        C  0.13702440  0.99793065  0.58547140    -0.30300
H755        H  0.13551483  0.55383864  0.59057063     0.13900
H756        H  0.11818985  0.96634335  0.58626965     0.14400
C757        C  0.36782231  0.98428404  0.60288003    -0.15200
C758        C  0.37026430  0.01188034  0.58034828    -0.30300
H759        H  0.33944036  0.96118329  0.60552045     0.13900
H760        H  0.38865330  0.50906801  0.56913652     0.14400
C761        C  0.96484894  0.59956528  0.57273714    -0.15200
C762        C  0.98942789  0.63766145  0.57413742    -0.30300
H763        H  0.94415421  0.59357570  0.55440472     0.13900
H764        H  0.52490847  0.64709094  0.60087189     0.14400
C765        C  0.48108592  0.87377371  0.56433896    -0.15200
C766        C  0.50649041  0.87783007  0.58764351    -0.30300
H767        H  0.45985216  0.90202747  0.55766947     0.13900
H768        H  0.02031573  0.85131149  0.60554679     0.14400
C769        C  0.08789688  0.76981805  0.21073457    -0.15200
C770        C  0.13142579  0.76663288  0.21947218    -0.30300
H771        H  0.07933796  0.77549060  0.18911274     0.13900
H772        H  0.13817688  0.76260113  0.24149596     0.14400
C773        C  0.41120736  0.74080093  0.19063222    -0.15200
C774        C  0.43592130  0.76885770  0.20630838    -0.30300
H775        H  0.41992967  0.70526690  0.18913841     0.13900
H776        H  0.42743621  0.80461384  0.20639743     0.14400
C777        C  0.27627437  0.62143122  0.07008775    -0.15200
C778        C  0.26028427  0.61934868  0.09619628    -0.30300
H779        H  0.29247716  0.65242426  0.06299083     0.13900
H780        H  0.23935247  0.59101594  0.10272119     0.14400
C781        C  0.27589915  0.90058963  0.07483544    -0.15200
C782        C  0.24220949  0.87771769  0.08700658    -0.30300
H783        H  0.31123877  0.89356945  0.08040432     0.13900
H784        H  0.20666319  0.88398003  0.08176788     0.14400
C785        C  0.26241226  0.61052874  0.92372736    -0.15200
C786        C  0.28057124  0.65186880  0.92136035    -0.30300
H787        H  0.24337971  0.59732866  0.90619849     0.13900
H788        H  0.29917779  0.66639127  0.93858475     0.14400
C789        C  0.25286871  0.88580141  0.90815414    -0.15200
C790        C  0.26736050  0.89019846  0.93452265    -0.30300
H791        H  0.23332156  0.91194402  0.89758432     0.13900
H792        H  0.28613935  0.86207268  0.94379324     0.14400
C793        C  0.00972201  0.66564569  0.70103842    -0.15200
C794        C  0.97550506  0.63718918  0.69414914    -0.30300
H795        H  0.04360956  0.65866253  0.69332830     0.13900
H796        H  0.45239089  0.66217665  0.69507874     0.14400
C797        C  0.51167953  0.83008112  0.71872209    -0.15200
C798        C  0.50793495  0.87070774  0.73095456    -0.30300
H799        H  0.02795871  0.85779144  0.73441962     0.13900
H800        H  0.50174080  0.87314900  0.75289554     0.14400
C801        C  0.08214984  0.74915695  0.78045821    -0.15200
C802        C  0.10552617  0.71629492  0.79372463    -0.30300
H803        H  0.09156624  0.78427635  0.78332018     0.13900
H804        H  0.09431045  0.68148160  0.79180861     0.14400
C805        C  0.37624896  0.74229107  0.77793229    -0.15200
C806        C  0.41942503  0.75522437  0.78388918    -0.30300
H807        H  0.36895143  0.72591348  0.75845062     0.13900
H808        H  0.42575963  0.77566934  0.80198842     0.14400
C809        C  0.33942532  0.01360359  0.71997515    -0.15200
C810        C  0.35692207  0.97547452  0.70940481    -0.30300
H811        H  0.32206083  0.52655520  0.69198741     0.13900
H812        H  0.33935734  0.94353075  0.71232293     0.14400
C813        C  0.14850856  0.49518684  0.70800359    -0.15200
C814        C  0.10583754  0.50722775  0.71548147    -0.30300
H815        H  0.16726726  0.97768288  0.70914327     0.13900
H816        H  0.10103339  0.52138820  0.73581912     0.14400
C817        C  0.24222438  0.58206057  0.77987430    -0.15200
C818        C  0.24611288  0.62541881  0.77126718    -0.30300
H819        H  0.24307186  0.57489018  0.80193046     0.13900
H820        H  0.24392841  0.63306963  0.74930360     0.14400
C821        C  0.24732111  0.92134144  0.77616365    -0.15200
C822        C  0.26694389  0.90436129  0.79931422    -0.30300
H823        H  0.23120563  0.89852367  0.76164958     0.13900
H824        H  0.28733431  0.92643242  0.81224883     0.14400
C825        C  0.13271891  0.71783062  0.06731231    -0.15200
C826        C  0.15862697  0.75317781  0.07397816    -0.30300
H827        H  0.13597173  0.68633357  0.07896939     0.13900
H828        H  0.15515517  0.78543556  0.06321627     0.14400
C829        C  0.40447378  0.81133596  0.08499658    -0.15200
C830        C  0.40499082  0.79136728  0.06017939    -0.30300
H831        H  0.43148347  0.83439106  0.09101046     0.13900
H832        H  0.37569651  0.77145604  0.05373196     0.14400
C833        C  0.12540450  0.71698710  0.92362884    -0.15200
C834        C  0.12818405  0.74602018  0.90202649    -0.30300
H835        H  0.15124326  0.69093853  0.92642105     0.13900
H836        H  0.10549137  0.77497981  0.90068899     0.14400
C837        C  0.39722237  0.77093749  0.92213204    -0.15200
C838        C  0.39947725  0.78807419  0.89641786    -0.30300
H839        H  0.36485330  0.75856138  0.92989871     0.13900
H840        H  0.43066294  0.80405259  0.88935448     0.14400
C841        C  0.33178820  0.00579681  0.29004306    -0.15200
C842        C  0.35244489  0.96681769  0.29768852    -0.30300
H843        H  0.34745812  0.03758231  0.29593930     0.13900
H844        H  0.38429424  0.53294395  0.26185165     0.14400
C845        C  0.17300799  0.98633004  0.28093795    -0.15200
C846        C  0.12964616  0.99528756  0.27312555    -0.30300
H847        H  0.18065086  0.97352721  0.30157738     0.13900
H848        H  0.12594775  0.50352874  0.25306691     0.14400
C849        C  0.25070357  0.58687716  0.20893321    -0.15200
C850        C  0.25571324  0.62928896  0.21783770    -0.30300
H851        H  0.24499495  0.58060976  0.18711698     0.13900
H852        H  0.26412560  0.63512132  0.23940252     0.14400
C853        C  0.28997121  0.90376308  0.19995824    -0.15200
C854        C  0.26888104  0.91546439  0.22325148    -0.30300
H855        H  0.30772631  0.92902189  0.18769169     0.13900
H856        H  0.25412463  0.88943372  0.23639082     0.14400
C857        C  0.75905345  0.05113168  0.23651582     0.87700
C858        C  0.76106011  0.01141265  0.21655961    -0.52500
C859        C  0.75417653  0.45980636  0.23659916     0.10700
C860        C  0.74921608  0.47040852  0.26745304     0.21600
C861        C  0.71486048  0.04383767  0.25275643    -0.53200
C862        C  0.70743475  0.50136776  0.26927466     0.10800
C863        C  0.79761975  0.04151122  0.25760902    -0.52700
C864        C  0.78934634  0.50144584  0.27447875     0.11300
H865        H  0.76089285  0.49680035  0.19778063     0.15900
H866        H  0.74730696  0.43986455  0.28095875     0.01600
H867        H  0.68871126  0.06961138  0.25438517     0.16200
H868        H  0.82562377  0.06484783  0.26095322     0.16000
N869        N  0.93106684  0.21200603  0.00527187    -0.35300
N870        N  0.50668845  0.29215555  0.03426977    -0.55900
N871        N  0.56910291  0.26213867  0.99210766    -0.35300
N872        N  0.49675411  0.25311553  0.95139867    -0.55900
C873        C  0.90687051  0.22083961  0.02823735     0.28200
C874        C  0.90350308  0.22017873  0.98312047     0.28200
C875        C  0.59775572  0.27756172  0.01177481     0.28200
C876        C  0.59294602  0.26042865  0.96851691     0.28200
C877        C  0.96918519  0.21127043  0.06305843     0.36900
C878        C  0.54308255  0.27886304  0.04984830     0.36900
C879        C  0.96114496  0.20772024  0.94702931     0.36900
C880        C  0.53096246  0.23212922  0.93842816     0.36900
C881        C  0.86307548  0.23411752  0.02059027    -0.20600
C882        C  0.86098624  0.23374939  0.99214485    -0.20600
C883        C  0.64011774  0.28652664  0.00058996    -0.20600
C884        C  0.63702656  0.27599176  0.97312853    -0.20600
C885        C  0.98563816  0.19858180  0.08894262    -0.21700
C886        C  0.52920798  0.26704559  0.07618758    -0.21700
C887        C  0.97451589  0.18914624  0.92231683    -0.21700
C888        C  0.51386681  0.20487057  0.91767982    -0.21700
C889        C  0.92279005  0.21575649  0.05586501    -0.17000
C890        C  0.91553676  0.21391683  0.95512535    -0.17000
C891        C  0.57732520  0.24049657  0.94395817    -0.17000
C892        C  0.58836876  0.27666633  0.04006980    -0.17000
H893        H  0.83551025  0.24346098  0.03406187     0.15900
H894        H  0.83152259  0.24267000  0.97959938     0.15900
H895        H  0.67044776  0.29794951  0.01133703     0.15900
H896        H  0.66463315  0.27800088  0.95852347     0.15900
H897        H  0.96625068  0.18828074  0.10682757     0.14200
H898        H  0.54975483  0.25360191  0.09302859     0.14200
H899        H  0.95299668  0.17395606  0.90670914     0.14200
H900        H  0.53280636  0.18376583  0.90377915     0.14200
H901        H  0.96316198  0.19717752  0.00478325     0.27400
H902        H  0.53771747  0.24692214  0.99563987     0.27400
C903        C  0.76107561  0.04112310  0.77603787     0.87700
C904        C  0.71662499  0.03949514  0.75896623    -0.52500
C905        C  0.69169925  0.49156489  0.73925578     0.10700
C906        C  0.73506212  0.46082070  0.73761512     0.21600
C907        C  0.76503351  0.99453574  0.79008013    -0.53200
C908        C  0.74977189  0.45373350  0.76815681     0.10800
C909        C  0.79881666  0.04209318  0.75461584    -0.52700
C910        C  0.77274041  0.49186545  0.72540754     0.11300
H911        H  0.68937260  0.06404146  0.76068375     0.15900
H912        H  0.72965519  0.42902853  0.72612482     0.01600
H913        H  0.76585183  0.49459042  0.80346198     0.16200
H914        H  0.82467241  0.06833237  0.75393881     0.16000
C915        C  0.50631761  0.20823642  0.73973696     0.87700
C916        C  0.50903207  0.25011224  0.72074427    -0.52500
C917        C  0.00570602  0.28657172  0.74126933     0.10700
C918        C  0.01610223  0.28995646  0.77220071     0.21600
C919        C  0.54932797  0.21100847  0.75792534    -0.53200
C920        C  0.55418909  0.25115547  0.77143387     0.10800
C921        C  0.98828710  0.21296829  0.77683585    -0.52700
C922        C  0.98368160  0.25639871  0.78603386     0.11300
H923        H  0.50702972  0.24830070  0.69838739     0.15900
H924        H  0.01320063  0.32418587  0.78097943     0.01600
H925        H  0.57422447  0.18392691  0.75955230     0.16200
H926        H  0.96587381  0.18549272  0.78280044     0.16000
N927        N  0.70989270  0.05505807  0.99843287    -0.35300
N928        N  0.73371001  0.98802756  0.95611254    -0.55900
N929        N  0.73495691  0.43095068  0.99188235    -0.35300
N930        N  0.73258093  0.99308598  0.04226502    -0.55900
C931        C  0.69286005  0.07537566  0.97530905     0.28200
C932        C  0.69688882  0.07986995  0.02046088     0.28200
C933        C  0.75325678  0.41386275  0.96883323     0.28200
C934        C  0.75266162  0.40743626  0.01357077     0.28200
C935        C  0.72690260  0.02456069  0.93968757     0.36900
C936        C  0.72925151  0.47323706  0.93589716     0.36900
C937        C  0.72948054  0.03088459  0.05769466     0.36900
C938        C  0.71919637  0.45380018  0.05013193     0.36900
C939        C  0.66810081  0.11320100  0.98285421    -0.20600
C940        C  0.67090876  0.11611495  0.01121426    -0.20600
C941        C  0.78301504  0.37903895  0.97582343    -0.20600
C942        C  0.78286660  0.37515217  0.00415370    -0.20600
C943        C  0.74402551  0.01650485  0.91354791    -0.21700
C944        C  0.71554654  0.48993072  0.91026266    -0.21700
C945        C  0.74804464  0.02296646  0.08369995    -0.21700
C946        C  0.70222610  0.46044905  0.07639725    -0.21700
C947        C  0.70499242  0.06491133  0.94774349    -0.17000
C948        C  0.71119465  0.07274973  0.04835110    -0.17000
C949        C  0.74102264  0.41431796  0.04141659    -0.17000
C950        C  0.74207726  0.42839939  0.94173466    -0.17000
H951        H  0.65138363  0.13754359  0.96932627     0.15900
H952        H  0.65638892  0.14257462  0.02357947     0.15900
H953        H  0.80335905  0.35906187  0.96201948     0.15900
H954        H  0.80321023  0.35159434  0.01628527     0.15900
H955        H  0.74307175  0.03843379  0.89553468     0.14200
H956        H  0.70920930  0.47112177  0.89159997     0.14200
H957        H  0.75137839  0.04621086  0.10061370     0.14200
H958        H  0.69807468  0.43551973  0.09271428     0.14200
H959        H  0.73459318  0.03059175  0.99867935     0.27400
H960        H  0.70867058  0.45461443  0.99241333     0.27400
O961        O  0.76307789  0.28315383  0.90604401    -0.78900
O962        O  0.71450076  0.23415696  0.78875893    -0.78900
O963        O  0.76276154  0.33745888  0.81928478    -0.78900
O964        O  0.64401474  0.20238641  0.86025767    -0.78900
O965        O  0.78725051  0.29229078  0.78700747    -0.79000
O966        O  0.68505159  0.25002738  0.88551816    -0.78900
O967        O  0.67508730  0.26313791  0.82274753    -0.78900
O968        O  0.75055756  0.33367106  0.87395566    -0.78900
C969        C  0.75043299  0.32210125  0.89902468     1.10800
C970        C  0.67815261  0.25238426  0.79764562     1.10700
C971        C  0.77117515  0.33043956  0.79429152     1.10800
C972        C  0.64698552  0.23012171  0.87976431     1.10700
O973        O  0.74320540  0.19874219  0.91533909    -0.78900
O974        O  0.84103907  0.22299145  0.81780209    -0.79000
O975        O  0.83828801  0.28658911  0.88067450    -0.78900
O976        O  0.69891906  0.16977084  0.82219359    -0.78900
O977        O  0.77209742  0.16641871  0.81751079    -0.78900
O978        O  0.81828689  0.21476226  0.88478528    -0.78900
O979        O  0.72594778  0.16679475  0.87544486    -0.78800
O980        O  0.85244341  0.29501228  0.82523049    -0.78900
Co981      Co  0.75320787  0.23049082  0.88216938     1.51500
Co982      Co  0.77831664  0.22978007  0.80508378     1.51700
Co983      Co  0.79809623  0.31003521  0.84937482     1.51600
Co984      Co  0.70279364  0.21989619  0.84919087     1.51500
O985        O  0.76274374  0.25149565  0.84333773    -1.40800
C986        C  0.73399836  0.16392737  0.90174340     1.10700
C987        C  0.86770135  0.25562804  0.82041631     1.10800
C988        C  0.84551498  0.24677167  0.89014776     1.10800
C989        C  0.73387988  0.14736772  0.81648364     1.10700
O990        O  0.76586067  0.31665800  0.20511697    -0.78900
O991        O  0.70254742  0.24381202  0.09515191    -0.78900
O992        O  0.74751035  0.32703133  0.11096772    -0.78900
O993        O  0.66644321  0.27191639  0.18343143    -0.78900
O994        O  0.77458721  0.27172668  0.08648012    -0.79000
O995        O  0.70958595  0.24258462  0.21530816    -0.78900
O996        O  0.66293622  0.27469073  0.12813480    -0.78900
O997        O  0.73936117  0.34706912  0.16629274    -0.78900
C998        C  0.74787311  0.35039239  0.19171129     1.10800
C999        C  0.66874268  0.26753691  0.10291342     1.10700
C1000       C  0.75975401  0.31170859  0.08780830     1.10800
C1001       C  0.67144004  0.25832788  0.20787693     1.10700
O1002       O  0.77082685  0.18135823  0.19132673    -0.78900
O1003       O  0.82476314  0.21725343  0.12041601    -0.79000
O1004       O  0.83306961  0.31890205  0.17526767    -0.78900
O1005       O  0.68265817  0.17722177  0.12518770    -0.78900
O1006       O  0.75217262  0.16691923  0.11064524    -0.78900
O1007       O  0.83295530  0.24746154  0.18321667    -0.78900
O1008       O  0.69699307  0.17656792  0.18160720    -0.78800
O1009       O  0.83730060  0.29031875  0.12237787    -0.78900
Co1010     Co  0.76946425  0.24751529  0.19569177     1.51500
Co1011     Co  0.76043987  0.23006246  0.11787583     1.51700
Co1012     Co  0.78488263  0.31604899  0.14460468     1.51600
Co1013     Co  0.68274821  0.22838793  0.15476706     1.51500
O1014       O  0.74898434  0.25552134  0.15477570    -1.40800
C1015       C  0.73396512  0.15902865  0.19099061     1.10700
C1016       C  0.85038706  0.25056614  0.11646527     1.10800
C1017       C  0.85356121  0.28430453  0.18456630     1.10800
C1018       C  0.71139828  0.15470924  0.11097639     1.10700
O1019       O  0.01968434  0.06087396  0.72047543    -0.78900
O1020       O  0.90635075  0.49280948  0.62052238    -0.78900
O1021       O  0.56131478  0.07257512  0.63171659    -0.78900
O1022       O  0.90330510  0.41835195  0.68413458    -0.78900
O1023       O  0.99961058  0.05051909  0.59977349    -0.79000
O1024       O  0.95494440  0.99278860  0.71603379    -0.78900
O1025       O  0.90782779  0.41927455  0.62803651    -0.78900
O1026       O  0.56296331  0.07832465  0.68778436    -0.78900
C1027       C  0.52720582  0.09863832  0.69572077     1.10800
C1028       C  0.88839049  0.45422006  0.61781721     1.10700
C1029       C  0.52623592  0.08882411  0.61937025     1.10800
C1030       C  0.87895666  0.45264981  0.68968167     1.10700
O1031       O  0.47251951  0.44758443  0.72072583    -0.78900
O1032       O  0.52895665  0.49531078  0.60085847    -0.79000
O1033       O  0.59318886  0.98389038  0.69182311    -0.78900
O1034       O  0.00572538  0.39800803  0.63168470    -0.78900
O1035       O  0.47527859  0.43594886  0.59451205    -0.78900
O1036       O  0.52899285  0.52054338  0.71991825    -0.78900
O1037       O  0.00122408  0.40117585  0.68666106    -0.78800
O1038       O  0.59133968  0.97834085  0.63601303    -0.78900
Co1039     Co  0.46578173  0.50979781  0.70242092     1.51500
Co1040     Co  0.97316589  0.49472883  0.61758376     1.51700
Co1041     Co  0.57201533  0.02458190  0.66226894     1.51600
Co1042     Co  0.95673564  0.41328790  0.65758141     1.51500
O1043       O  0.97643753  0.47990414  0.65789686    -1.40800
C1044       C  0.98858872  0.40727257  0.71094650     1.10700
C1045       C  0.58469029  0.98503704  0.61053272     1.10800
C1046       C  0.58946256  0.99865216  0.71586491     1.10800
C1047       C  0.99646905  0.40125086  0.60640557     1.10700
O1048       O  0.58016746  0.48499149  0.31105286    -0.78900
O1049       O  0.49039859  0.44133616  0.41141714    -0.78900
O1050       O  0.59284424  0.99815096  0.37676681    -0.78900
O1051       O  0.94027337  0.42039928  0.32185566    -0.78900
O1052       O  0.55911583  0.46577274  0.37673694    -0.79000
O1053       O  0.51319963  0.42059050  0.31022596    -0.78900
O1054       O  0.00569835  0.41732585  0.36060252    -0.78900
O1055       O  0.59315127  0.98829785  0.31983389    -0.78900
C1056       C  0.60191374  0.52161982  0.31289225     1.10800
C1057       C  0.01180315  0.41771345  0.38608800     1.10700
C1058       C  0.58503927  0.49732437  0.38393044     1.10800
C1059       C  0.96783929  0.40745137  0.30378740     1.10700
O1060       O  0.92173842  0.49687386  0.29785591    -0.78900
O1061       O  0.98098001  0.07440104  0.37098089    -0.79000
O1062       O  0.55461189  0.07809991  0.31447713    -0.78900
O1063       O  0.91425342  0.42979539  0.37585615    -0.78900
O1064       O  0.92121123  0.49667759  0.39391432    -0.78900
O1065       O  0.48281754  0.07199733  0.30158574    -0.78900
O1066       O  0.90825081  0.50551616  0.34191166    -0.78800
O1067       O  0.54165668  0.08139581  0.36880160    -0.78900
Co1068     Co  0.51464522  0.48673325  0.30184402     1.51500
Co1069     Co  0.49445039  0.47937739  0.37986280     1.51700
Co1070     Co  0.56431402  0.03238854  0.34474131     1.51600
Co1071     Co  0.95791439  0.46226156  0.35200664     1.51500
O1072       O  0.49968144  0.50387630  0.34118847    -1.40800
C1073       C  0.89540573  0.50777822  0.31705651     1.10700
C1074       C  0.53102226  0.07779268  0.39388041     1.10800
C1075       C  0.51858344  0.09557738  0.30457050     1.10800
C1076       C  0.90306394  0.45756396  0.39441712     1.10700
N1077       N  0.98497772  0.17879184  0.48960432    -0.35300
N1078       N  0.00811377  0.24929138  0.44869176    -0.55900
N1079       N  0.01209074  0.31226066  0.49387774    -0.35300
N1080       N  0.99588124  0.24265825  0.53508277    -0.55900
C1081       C  0.99377227  0.15452763  0.46669402     0.28200
C1082       C  0.98935689  0.15057258  0.51179358     0.28200
C1083       C  0.02937400  0.33723233  0.47298522     0.28200
C1084       C  0.02097761  0.33463178  0.51742935     0.28200
C1085       C  0.99018914  0.21711413  0.43233911     0.36900
C1086       C  0.00359819  0.28885175  0.43467468     0.36900
C1087       C  0.97472660  0.20755685  0.54769454     0.36900
C1088       C  0.98565989  0.28008047  0.54960420     0.36900
C1089       C  0.00392184  0.11035816  0.47435310    -0.20600
C1090       C  0.00145550  0.10789409  0.50272232    -0.20600
C1091       C  0.05084177  0.37523250  0.48350089    -0.20600
C1092       C  0.04532508  0.37366215  0.51162093    -0.20600
C1093       C  0.97447886  0.23603391  0.40775528    -0.21700
C1094       C  0.98244167  0.28164347  0.40934674    -0.21700
C1095       C  0.95052764  0.22299007  0.57015525    -0.21700
C1096       C  0.95784787  0.26883188  0.57152795    -0.21700
C1097       C  0.98992422  0.17065587  0.43904146    -0.17000
C1098       C  0.97921583  0.16178497  0.53958813    -0.17000
C1099       C  0.00157373  0.32404597  0.54311099    -0.17000
C1100       C  0.01862027  0.33094014  0.44488501    -0.17000
H1101       H  0.01218994  0.08265544  0.46091737     0.15900
H1102       H  0.00768334  0.07777574  0.51505853     0.15900
H1103       H  0.06648222  0.40254626  0.47194287     0.12700
H1104       H  0.05607560  0.39930378  0.52602270     0.15900
H1105       H  0.95804114  0.21891750  0.39073695     0.14200
H1106       H  0.97262916  0.30637901  0.39379672     0.14200
H1107       H  0.92904223  0.20350538  0.58385636     0.14200
H1108       H  0.94349279  0.29134115  0.58656468     0.14200
H1109       H  0.97181154  0.21141495  0.48976359     0.27400
H1110       H  0.98856893  0.28625114  0.49178558     0.27400
N1111       N  0.66390828  0.47624550  0.49655604    -0.35300
N1112       N  0.72517476  0.46851445  0.54322992    -0.55900
N1113       N  0.80307121  0.46859939  0.50642854    -0.35300
N1114       N  0.74196661  0.47618548  0.45989318    -0.55900
C1115       C  0.63483289  0.48247981  0.51766325     0.28200
C1116       C  0.64497389  0.49583723  0.47379478     0.28200
C1117       C  0.82290191  0.48055129  0.53069120     0.28200
C1118       C  0.83278593  0.47834809  0.48594103     0.28200
C1119       C  0.68599525  0.45556403  0.55532426     0.36900
C1120       C  0.75918075  0.45887288  0.56134468     0.36900
C1121       C  0.70816176  0.48150938  0.44096321     0.36900
C1122       C  0.78064502  0.46901383  0.44566347     0.36900
C1123       C  0.59633327  0.50512276  0.50809856    -0.20600
C1124       C  0.60271868  0.51360050  0.48044545    -0.20600
C1125       C  0.86607766  0.49763789  0.52555271    -0.20600
C1126       C  0.87244877  0.49588252  0.49743737    -0.20600
C1127       C  0.69537244  0.43588032  0.58088824    -0.21700
C1128       C  0.74155890  0.43939169  0.58510873    -0.21700
C1129       C  0.72546431  0.47772027  0.41463265    -0.21700
C1130       C  0.77084567  0.46961186  0.41753484    -0.21700
C1131       C  0.64221597  0.46788648  0.54523640    -0.17000
C1132       C  0.66340575  0.49569505  0.44689679    -0.17000
C1133       C  0.82512135  0.47077024  0.45729497    -0.17000
C1134       C  0.80480118  0.47223942  0.55736674    -0.17000
H1135       H  0.56687046  0.51498803  0.51983226     0.15900
H1136       H  0.57862082  0.53062483  0.46683094     0.15900
H1137       H  0.89105654  0.50911653  0.54048814     0.15900
H1138       H  0.90295836  0.50649403  0.48684683     0.15900
H1139       H  0.67131571  0.42229695  0.59558996     0.14200
H1140       H  0.75947759  0.42912607  0.60373694     0.14200
H1141       H  0.70844957  0.48306629  0.39499565     0.14200
H1142       H  0.79364027  0.46871324  0.40025534     0.14200
H1143       H  0.69298616  0.45619714  0.49728879     0.27400
H1144       H  0.77300575  0.45035578  0.50417675     0.27400
C1145       C  0.49746397  0.20845161  0.26414679     0.87700
C1146       C  0.54366796  0.21355871  0.24953667    -0.52500
C1147       C  0.54875349  0.25382890  0.23566195     0.10700
C1148       C  0.99414577  0.28333097  0.23420361     0.21600
C1149       C  0.99258813  0.26171680  0.28307028    -0.53200
C1150       C  0.98997482  0.29727817  0.26457686     0.10800
C1151       C  0.96054566  0.21177786  0.24852385    -0.52700
C1152       C  0.95658437  0.24727109  0.23029870     0.11300
H1153       H  0.56947433  0.18726047  0.24965630     0.15900
H1154       H  0.99218611  0.31208216  0.21929751     0.01600
H1155       H  0.99147286  0.26589734  0.30528393     0.16200
H1156       H  0.93664175  0.18374171  0.24873276     0.16000
C1157       C  0.98805481  0.34549747  0.27248069    -0.15200
C1158       C  0.96661504  0.35978898  0.29509229    -0.30300
H1159       H  0.52600292  0.36001529  0.27186132     0.13900
H1160       H  0.94766880  0.33586152  0.30770013     0.14400
C1161       C  0.49013518  0.16270460  0.27820806    -0.15200
C1162       C  0.52114396  0.14346822  0.29514145    -0.30300
H1163       H  0.96855886  0.16295003  0.29662082     0.13900
H1164       H  0.55177043  0.16231004  0.30033796     0.14400
C1165       C  0.52751160  0.11812781  0.41087028    -0.15200
C1166       C  0.50477276  0.11604912  0.43469935    -0.30300
H1167       H  0.54374982  0.14926036  0.40407578     0.13900
H1168       H  0.96515043  0.10697352  0.42051224     0.14400
C1169       C  0.01473974  0.37281699  0.42794771    -0.15200
C1170       C  0.02663674  0.37712303  0.40142137    -0.30300
H1171       H  0.99966533  0.40163225  0.43817189     0.13900
H1172       H  0.51072368  0.33601639  0.39614163     0.14400
C1173       C  0.62210599  0.48549195  0.40304007    -0.15200
C1174       C  0.63415128  0.51262089  0.42377800    -0.30300
H1175       H  0.63441773  0.45083674  0.40302377     0.13900
H1176       H  0.64954399  0.01001711  0.41634389     0.14400
C1177       C  0.87084229  0.44596130  0.41665113    -0.15200
C1178       C  0.86434242  0.47441204  0.43795309    -0.30300
H1179       H  0.85069747  0.41532318  0.41495902     0.13900
H1180       H  0.88394580  0.02599227  0.43860732     0.14400
C1181       C  0.62253631  0.97695610  0.59168560    -0.15200
C1182       C  0.60297292  0.46979041  0.56449416    -0.30300
H1183       H  0.65518484  0.99106153  0.59778474     0.13900
H1184       H  0.56959410  0.45909921  0.55716313     0.14400
C1185       C  0.84897079  0.44801774  0.59903836    -0.15200
C1186       C  0.83464969  0.48107682  0.58177526    -0.30300
H1187       H  0.83616071  0.41390990  0.59637770     0.13900
H1188       H  0.86370932  0.02351767  0.58121987     0.14400
C1189       C  0.52919629  0.12574548  0.59915661    -0.15200
C1190       C  0.50205127  0.12391160  0.57656217    -0.30300
H1191       H  0.55449455  0.15220306  0.60151989     0.13900
H1192       H  0.96425697  0.09041224  0.55265635     0.14400
C1193       C  0.99285963  0.36252467  0.56179287    -0.15200
C1194       C  0.00764381  0.36341981  0.58805328    -0.30300
H1195       H  0.97546972  0.39186207  0.55299874     0.13900
H1196       H  0.53635396  0.34111331  0.59946176     0.14400
C1197       C  0.58935765  0.26591519  0.21899336    -0.15200
C1198       C  0.63196207  0.25373766  0.22652811    -0.30300
H1199       H  0.58374143  0.28509282  0.20000417     0.13900
H1200       H  0.63753526  0.23643604  0.24618669     0.14400
C1201       C  0.89859378  0.28672947  0.19916261    -0.15200
C1202       C  0.91723383  0.24897300  0.21053223    -0.30300
H1203       H  0.91419255  0.31947542  0.20249903     0.13900
H1204       H  0.89980189  0.21701863  0.20742573     0.14400
C1205       C  0.71479208  0.11329729  0.06681753    -0.15200
C1206       C  0.69722510  0.11679761  0.09259415    -0.30300
H1207       H  0.73523898  0.14112165  0.05892341     0.13900
H1208       H  0.67380934  0.09135147  0.10028951     0.14400
C1209       C  0.75677829  0.38308395  0.06356125    -0.15200
C1210       C  0.75204512  0.33832361  0.06260161    -0.30300
H1211       H  0.76864889  0.39804997  0.08274429     0.13900
H1212       H  0.74051771  0.32161307  0.04396987     0.14400
C1213       C  0.69944420  0.10134334  0.92672806    -0.15200
C1214       C  0.73659677  0.12060245  0.91598519    -0.30300
H1215       H  0.66609369  0.11641097  0.92311045     0.13900
H1216       H  0.77028207  0.10832607  0.92188154     0.14400
C1217       C  0.73761146  0.35361429  0.92041695    -0.15200
C1218       C  0.74828834  0.39738945  0.91834011    -0.30300
H1219       H  0.72370110  0.33985213  0.93944052     0.13900
H1220       H  0.76254020  0.41061539  0.89925758     0.14400
C1221       C  0.50007698  0.16315056  0.72468736    -0.15200
C1222       C  0.53128178  0.14519422  0.70751227    -0.30300
H1223       H  0.46948533  0.14374893  0.72898754     0.13900
H1224       H  0.96042154  0.15483414  0.72869064     0.14400
C1225       C  0.99853090  0.32643373  0.72259744    -0.15200
C1226       C  0.99422555  0.36971642  0.73117930    -0.30300
H1227       H  0.52121132  0.33243544  0.69764755     0.13900
H1228       H  0.99226499  0.37773326  0.75286110     0.14400
C1229       C  0.59509154  0.26214974  0.78842135    -0.15200
C1230       C  0.63739118  0.25315716  0.77939499    -0.30300
H1231       H  0.59011595  0.27646749  0.80869313     0.13900
H1232       H  0.64145861  0.24036246  0.75863163     0.14400
C1233       C  0.91608719  0.24561937  0.81554699    -0.15200
C1234       C  0.94328093  0.27325458  0.80123463    -0.30300
H1235       H  0.92658939  0.21085660  0.81912580     0.13900
H1236       H  0.93274843  0.30800573  0.79748528     0.14400
C1237       C  0.80387692  0.48253945  0.70218777    -0.15200
C1238       C  0.83310602  0.44741776  0.70230683    -0.30300
H1239       H  0.82724313  0.98227356  0.69745141     0.13900
H1240       H  0.82688240  0.41820631  0.71552496     0.14400
C1241       C  0.67267916  0.99312263  0.72487010    -0.15200
C1242       C  0.63022745  0.00189770  0.73395261    -0.30300
H1243       H  0.64869468  0.46218178  0.70644546     0.13900
H1244       H  0.62562489  0.01575024  0.75438845     0.14400
C1245       C  0.76563243  0.08047672  0.79524490    -0.15200
C1246       C  0.72985616  0.10070412  0.80686815    -0.30300
H1247       H  0.79855333  0.09733212  0.79589182     0.13900
H1248       H  0.69634311  0.08521546  0.80628511     0.14400
C1249       C  0.75399688  0.41037511  0.78401321    -0.15200
C1250       C  0.76415237  0.36890239  0.77424765    -0.30300
H1251       H  0.75110044  0.41413707  0.80621446     0.13900
H1252       H  0.76936519  0.36397700  0.75234549     0.14400
C1253       C  0.62753575  0.26574456  0.05876660    -0.15200
C1254       C  0.63421818  0.28500768  0.08326988    -0.30300
H1255       H  0.65163425  0.24042539  0.05191300     0.13900
H1256       H  0.61077899  0.31080955  0.09021808     0.14400
C1257       C  0.89095804  0.24437090  0.09957701    -0.15200
C1258       C  0.88861457  0.21579166  0.07815844    -0.30300
H1259       H  0.91909874  0.26800393  0.10142849     0.13900
H1260       H  0.85788144  0.19594781  0.07485842     0.14400
C1261       C  0.61202105  0.22809957  0.92374274    -0.15200
C1262       C  0.60802335  0.23851507  0.89694649    -0.30300
H1263       H  0.64384391  0.21364221  0.93155387     0.13900
H1264       H  0.57721760  0.25320579  0.88804924     0.14400
C1265       C  0.87899760  0.21516438  0.93331688    -0.15200
C1266       C  0.88358444  0.23984405  0.90987450    -0.30300
H1267       H  0.84656728  0.19895172  0.93762630     0.13900
H1268       H  0.91404175  0.26013327  0.90696360     0.14400
C1269       C  0.82498302  0.48872791  0.29468859    -0.15200
C1270       C  0.84862467  0.51921436  0.30926253    -0.30300
H1271       H  0.83578524  0.45358984  0.29496142     0.13900
H1272       H  0.84775951  0.04394770  0.30617887     0.14400
C1273       C  0.66823573  0.49231201  0.28746320    -0.15200
C1274       C  0.64705480  0.52631386  0.30027017    -0.30300
H1275       H  0.65588038  0.45787309  0.28942364     0.13900
H1276       H  0.62244984  0.01193812  0.25501222     0.14400
C1277       C  0.76299152  0.09737228  0.22229398    -0.15200
C1278       C  0.73232259  0.11268708  0.20335015    -0.30300
H1279       H  0.79129215  0.11907358  0.22810110     0.13900
H1280       H  0.70319021  0.09163277  0.19827035     0.14400
C1281       C  0.74094805  0.39655677  0.20343775    -0.15200
C1282       C  0.75873148  0.41162526  0.22732252    -0.30300
H1283       H  0.72286573  0.42078660  0.19030673     0.13900
H1284       H  0.77583447  0.38780000  0.24114608     0.14400
C1285       C  0.75389696  0.54296753  0.23632242     0.87700
C1286       C  0.75647575  0.49814567  0.21995107    -0.52500
C1287       C  0.75816359  0.96971310  0.22892533     0.10700
C1288       C  0.75381474  0.97189050  0.26081316     0.21600
C1289       C  0.70989429  0.53893568  0.25278471    -0.53200
C1290       C  0.71171437  0.00237613  0.26553287     0.10800
C1291       C  0.79196497  0.53912862  0.25811541    -0.52700
C1292       C  0.79538832  0.99991163  0.27037145     0.11300
H1293       H  0.76466379  0.01599863  0.19440306     0.15900
H1294       H  0.75153857  0.93876210  0.27157394     0.01600
H1295       H  0.68298585  0.56415231  0.25161942     0.16200
H1296       H  0.81929796  0.56371627  0.25995264     0.16000
N1297       N  0.94153258  0.73154843  0.99984711    -0.35300
N1298       N  0.52543995  0.78730156  0.03320691    -0.55900
N1299       N  0.58917930  0.75726267  0.99038469    -0.35300
N1300       N  0.51809423  0.76140321  0.94811851    -0.55900
C1301       C  0.91790985  0.74186578  0.02290500     0.28200
C1302       C  0.91630862  0.74508709  0.97761939     0.28200
C1303       C  0.61794913  0.76858697  0.01124467     0.28200
C1304       C  0.61409001  0.75422668  0.96706207     0.28200
C1305       C  0.97739313  0.72141051  0.05759785     0.36900
C1306       C  0.56061770  0.77061567  0.04847210     0.36900
C1307       C  0.97119389  0.72380051  0.94108832     0.36900
C1308       C  0.55056890  0.73928407  0.93413614     0.36900
C1309       C  0.87692327  0.76196409  0.01517417    -0.20600
C1310       C  0.87600525  0.76418437  0.98667661    -0.20600
C1311       C  0.66175811  0.77304943  0.00095699    -0.20600
C1312       C  0.65934372  0.76384792  0.97316101    -0.20600
C1313       C  0.99233803  0.70369748  0.08270545    -0.21700
C1314       C  0.54506594  0.75478752  0.07373589    -0.21700
C1315       C  0.98104282  0.70463925  0.91582162    -0.21700
C1316       C  0.53162580  0.71814036  0.91136486    -0.21700
C1317       C  0.93154828  0.73155500  0.05059182    -0.17000
C1318       C  0.92751162  0.73783982  0.94949273    -0.17000
C1319       C  0.59741413  0.74037115  0.94087334    -0.17000
C1320       C  0.60645467  0.76950674  0.03966301    -0.17000
H1321       H  0.85042732  0.77389445  0.02864758     0.15900
H1322       H  0.84851847  0.77792175  0.97409013     0.15900
H1323       H  0.69254160  0.78115486  0.01235922     0.15900
H1324       H  0.68783167  0.76379176  0.95914377     0.15900
H1325       H  0.97211214  0.69303476  0.10013181     0.14200
H1326       H  0.56429179  0.73766418  0.08990385     0.14200
H1327       H  0.95724481  0.69418987  0.89993044     0.14200
H1328       H  0.54881847  0.69770309  0.89631393     0.14200
H1329       H  0.97076419  0.71179994  0.99914790     0.27400
H1330       H  0.55569539  0.74661600  0.99267097     0.27400
C1331       C  0.74767807  0.53619922  0.76424241     0.87700
C1332       C  0.69917189  0.53084752  0.75316478    -0.52500
C1333       C  0.71412901  0.00391240  0.74137131     0.10700
C1334       C  0.75741428  0.97449830  0.74147247     0.21600
C1335       C  0.75610938  0.49348011  0.78177343    -0.53200
C1336       C  0.76267375  0.95956265  0.77186589     0.10800
C1337       C  0.77837204  0.53122513  0.73932419    -0.52700
C1338       C  0.79779558  0.00709115  0.73667678     0.11300
H1339       H  0.67348606  0.55687845  0.75549188     0.15900
H1340       H  0.75592544  0.94590516  0.72685250     0.01600
H1341       H  0.76763332  0.98969666  0.81230020     0.16200
H1342       H  0.80379957  0.55628867  0.73367653     0.16000
C1343       C  0.50682661  0.70282396  0.73419027     0.87700
C1344       C  0.50993749  0.74659144  0.71719397    -0.52500
C1345       C  0.00635308  0.78719266  0.72650918     0.10700
C1346       C  0.00360971  0.77100051  0.75674959     0.21600
C1347       C  0.54433123  0.70692877  0.75594975    -0.53200
C1348       C  0.54247085  0.74486671  0.77147251     0.10800
C1349       C  0.96245338  0.70536191  0.73970101    -0.52700
C1350       C  0.96142546  0.73998224  0.75815198     0.11300
H1351       H  0.51446343  0.74698609  0.69496082     0.15900
H1352       H  0.00303390  0.79904700  0.77177768     0.01600
H1353       H  0.57231492  0.68295575  0.75755587     0.16200
H1354       H  0.93636542  0.67954189  0.73938347     0.16000
N1355       N  0.71908091  0.56900771  0.99892110    -0.35300
N1356       N  0.73458495  0.50722853  0.95390856    -0.55900
N1357       N  0.76184354  0.92744189  0.99990803    -0.35300
N1358       N  0.72142108  0.49333011  0.03625349    -0.55900
C1359       C  0.73295076  0.59780234  0.97890582     0.28200
C1360       C  0.72586357  0.58999746  0.02321600     0.28200
C1361       C  0.76586887  0.89988310  0.97796227     0.28200
C1362       C  0.76340443  0.90107986  0.02285099     0.28200
C1363       C  0.72515342  0.54560960  0.93972057     0.36900
C1364       C  0.75635794  0.95759088  0.94082587     0.36900
C1365       C  0.70791482  0.52537730  0.05388172     0.36900
C1366       C  0.75417342  0.96179080  0.05818835     0.36900
C1367       C  0.74710075  0.63814653  0.99045773    -0.20600
C1368       C  0.74254822  0.63325651  0.01846369    -0.20600
C1369       C  0.77007689  0.85552427  0.98704313    -0.20600
C1370       C  0.76933554  0.85628651  0.01524111    -0.20600
C1371       C  0.71303638  0.53600120  0.91269068    -0.21700
C1372       C  0.76358675  0.97458881  0.91450113    -0.21700
C1373       C  0.69551828  0.50599488  0.07886631    -0.21700
C1374       C  0.76299052  0.97918306  0.08416144    -0.21700
C1375       C  0.73161949  0.58913751  0.95045575    -0.17000
C1376       C  0.71658725  0.57142920  0.04949191    -0.17000
C1377       C  0.76450033  0.91712058  0.05029740    -0.17000
C1378       C  0.76872645  0.91391858  0.95009032    -0.17000
H1379       H  0.75973450  0.66796017  0.97988244     0.15900
H1380       H  0.75071621  0.65875402  0.03354642     0.15900
H1381       H  0.77420784  0.82553781  0.97477233     0.15900
H1382       H  0.77427949  0.82675637  0.02822067     0.15900
H1383       H  0.70402878  0.55971416  0.89634490     0.14200
H1384       H  0.78111020  0.95868728  0.89765397     0.14200
H1385       H  0.68546989  0.52291032  0.09749284     0.14200
H1386       H  0.77935683  0.96254920  0.10162734     0.14200
H1387       H  0.70263256  0.53827627  0.99595304     0.27400
H1388       H  0.76400783  0.96201662  0.99957344     0.27400
O1389       O  0.76249452  0.79148201  0.90733608    -0.78900
O1390       O  0.67684713  0.76289265  0.80572376    -0.78900
O1391       O  0.81811741  0.82570576  0.81718593    -0.78900
O1392       O  0.68280302  0.69728677  0.86964837    -0.78900
O1393       O  0.74558774  0.82557399  0.80680960    -0.79000
O1394       O  0.69477867  0.77076768  0.87048716    -0.78900
O1395       O  0.67500367  0.68971385  0.81493771    -0.78900
O1396       O  0.78117721  0.82549726  0.86799905    -0.78900
C1397       C  0.76953288  0.82731746  0.89363639     1.10800
C1398       C  0.65479680  0.72646970  0.80870081     1.10700
C1399       C  0.78309361  0.84627341  0.80854621     1.10800
C1400       C  0.67007149  0.73708931  0.87603560     1.10700
O1401       O  0.75138015  0.70415039  0.89757360    -0.78900
O1402       O  0.80749242  0.75878818  0.78299627    -0.79000
O1403       O  0.86867950  0.79668903  0.86167788    -0.78900
O1404       O  0.76738579  0.65619038  0.81116385    -0.78900
O1405       O  0.73650546  0.69901450  0.77876289    -0.78900
O1406       O  0.82815620  0.74462966  0.88318219    -0.78900
O1407       O  0.77676063  0.65949736  0.86635000    -0.78800
O1408       O  0.84905804  0.73666578  0.81960431    -0.78900
Co1409     Co  0.76042339  0.75934759  0.87413296     1.51500
Co1410     Co  0.74225181  0.76124260  0.79606105     1.51700
Co1411     Co  0.81389588  0.77546908  0.84459074     1.51600
Co1412     Co  0.72834170  0.67848007  0.84029530     1.51500
O1413       O  0.75804563  0.73956845  0.83495781    -1.40800
C1414       C  0.76693347  0.66606847  0.89103790     1.10700
C1415       C  0.84408011  0.74220769  0.79360152     1.10800
C1416       C  0.86413234  0.76943571  0.88184550     1.10800
C1417       C  0.75320325  0.66122866  0.78673582     1.10700
O1418       O  0.76706751  0.80683902  0.21665493    -0.78900
O1419       O  0.71649658  0.74350882  0.09708250    -0.78900
O1420       O  0.76692640  0.83328718  0.12477179    -0.78900
O1421       O  0.66978184  0.70349542  0.17650247    -0.78900
O1422       O  0.77923393  0.77845756  0.09553768    -0.79000
O1423       O  0.68913627  0.75831437  0.20440057    -0.78900
O1424       O  0.67532565  0.76096452  0.13164750    -0.78900
O1425       O  0.76426170  0.84832744  0.17902350    -0.78900
C1426       C  0.76254001  0.84489533  0.20489505     1.10800
C1427       C  0.68046026  0.76133124  0.10589465     1.10700
C1428       C  0.76870353  0.81888933  0.10045045     1.10800
C1429       C  0.65993258  0.73072032  0.19529615     1.10700
O1430       O  0.74305781  0.67745140  0.20401229    -0.78900
O1431       O  0.83224667  0.71417904  0.11649555    -0.79000
O1432       O  0.84607365  0.79336864  0.18770546    -0.78900
O1433       O  0.67998859  0.66792692  0.12595358    -0.78900
O1434       O  0.74966899  0.66663741  0.11003693    -0.78900
O1435       O  0.81981499  0.72878907  0.20516388    -0.78900
O1436       O  0.75277487  0.65964765  0.16120427    -0.78800
O1437       O  0.85119372  0.78232595  0.13060415    -0.78900
Co1438     Co  0.75518493  0.74359210  0.20399014     1.51500
Co1439     Co  0.76893574  0.72898822  0.12264977     1.51700
Co1440     Co  0.80334786  0.80978682  0.15606227     1.51600
Co1441     Co  0.71491362  0.71192172  0.14682827     1.51500
O1442       O  0.75959011  0.75509016  0.16194779    -1.40800
C1443       C  0.75165121  0.64805109  0.18622847     1.10700
C1444       C  0.85991949  0.74668142  0.11696377     1.10800
C1445       C  0.85156761  0.75686005  0.20159567     1.10800
C1446       C  0.70899220  0.65065061  0.11010272     1.10700
O1447       O  0.94943230  0.56502741  0.68088022    -0.78900
O1448       O  0.92832217  0.99875315  0.61723285    -0.78900
O1449       O  0.51913697  0.57010539  0.62736068    -0.78900
O1450       O  0.91229627  0.00676668  0.67845426    -0.78900
O1451       O  0.96717799  0.52197347  0.58255238    -0.79000
O1452       O  0.89536315  0.49189708  0.68732731    -0.78900
O1453       O  0.90230412  0.93962651  0.63989723    -0.78900
O1454       O  0.52940596  0.58303346  0.68293107    -0.78900
C1455       C  0.49024806  0.59815315  0.68882632     1.10800
C1456       C  0.89896667  0.96642952  0.61957899     1.10700
C1457       C  0.48185946  0.56795415  0.61334561     1.10800
C1458       C  0.91701890  0.00387150  0.70453623     1.10700
O1459       O  0.48858025  0.94888145  0.72235439    -0.78900
O1460       O  0.54751897  0.00271591  0.60215707    -0.79000
O1461       O  0.57458061  0.49537543  0.68801291    -0.78900
O1462       O  0.99215317  0.92527835  0.63247143    -0.78900
O1463       O  0.48466381  0.95379119  0.60048068    -0.78900
O1464       O  0.55211621  0.01636492  0.72321139    -0.78900
O1465       O  0.95363771  0.92277532  0.68376370    -0.78800
O1466       O  0.57583141  0.48644890  0.63438150    -0.78900
Co1467     Co  0.48904492  0.01299077  0.70560096     1.51500
Co1468     Co  0.99884457  0.99482931  0.62410154     1.51700
Co1469     Co  0.54581912  0.53068427  0.65843624     1.51600
Co1470     Co  0.95284201  0.97110517  0.65508875     1.51500
O1471       O  0.00272269  0.01545588  0.66387787    -1.40800
C1472       C  0.99029395  0.90529320  0.69212765     1.10700
C1473       C  0.56902454  0.48943718  0.60894403     1.10800
C1474       C  0.56764647  0.50472384  0.71275044     1.10800
C1475       C  0.99885324  0.92321216  0.60616636     1.10700
O1476       O  0.54967439  0.00705172  0.28455481    -0.78900
O1477       O  0.48368230  0.92902512  0.40014372    -0.78900
O1478       O  0.57504163  0.53843719  0.37812574    -0.78900
O1479       O  0.01480138  0.92235073  0.31332437    -0.78900
O1480       O  0.54330553  0.95028233  0.39279088    -0.79000
O1481       O  0.48922421  0.93621201  0.29349369    -0.78900
O1482       O  0.02665917  0.91020519  0.36356946    -0.78900
O1483       O  0.58358197  0.55651511  0.32292759    -0.78900
C1484       C  0.58845488  0.99556997  0.29424502     1.10800
C1485       C  0.02631058  0.91456695  0.38879823     1.10700
C1486       C  0.58257884  0.96533126  0.39249856     1.10800
C1487       C  0.00035832  0.92754269  0.28935502     1.10700
O1488       O  0.93137921  0.03185421  0.31692271    -0.78900
O1489       O  0.97229192  0.57273785  0.38702817    -0.79000
O1490       O  0.49336899  0.59364091  0.32038845    -0.78900
O1491       O  0.93407084  0.95490572  0.37799630    -0.78900
O1492       O  0.94972013  0.01112128  0.40794745    -0.78900
O1493       O  0.51798103  0.55124112  0.28653047    -0.78900
O1494       O  0.92071766  0.95947887  0.32033240    -0.78800
O1495       O  0.48374354  0.58024954  0.37514781    -0.78900
Co1496     Co  0.48563699  0.00471419  0.29988052     1.51500
Co1497     Co  0.49517747  0.99127757  0.38310388     1.51700
Co1498     Co  0.53122250  0.56384895  0.34889279     1.51600
Co1499     Co  0.97752203  0.94152897  0.34360957     1.51500
O1500       O  0.49880774  0.00231311  0.34166893    -1.40800
C1501       C  0.90507561  0.99889457  0.31532038     1.10700
C1502       C  0.49075771  0.57047448  0.40006905     1.10800
C1503       C  0.50263660  0.58881243  0.29523254     1.10800
C1504       C  0.92465749  0.97831479  0.40010681     1.10700
N1505       N  0.99418438  0.68479070  0.50047268    -0.35300
N1506       N  0.01723029  0.75233532  0.45737165    -0.55900
N1507       N  0.01989895  0.81812598  0.50068294    -0.35300
N1508       N  0.00405271  0.75228504  0.54370231    -0.55900
C1509       C  0.00312278  0.65908704  0.47815598     0.28200
C1510       C  0.99978173  0.65841312  0.52343926     0.28200
C1511       C  0.03855015  0.84113217  0.47935306     0.28200
C1512       C  0.03019073  0.84116179  0.52377312     0.28200
C1513       C  0.99821232  0.71926626  0.44215122     0.36900
C1514       C  0.01281578  0.79100059  0.44234884     0.36900
C1515       C  0.98653494  0.71752623  0.55836486     0.36900
C1516       C  0.99495346  0.79021844  0.55790072     0.36900
C1517       C  0.01470527  0.61580000  0.48703509    -0.20600
C1518       C  0.01305412  0.61548145  0.51551689    -0.20600
C1519       C  0.06222037  0.87825622  0.48904911    -0.20600
C1520       C  0.05693704  0.87820903  0.51718292    -0.20600
C1521       C  0.98161066  0.73701286  0.41739202    -0.21700
C1522       C  0.99100339  0.78244656  0.41747526    -0.21700
C1523       C  0.96665934  0.73319294  0.58223443    -0.21700
C1524       C  0.97116300  0.77948846  0.58167188    -0.21700
C1525       C  0.99786971  0.67312018  0.45005336    -0.17000
C1526       C  0.99068456  0.67179185  0.55107422    -0.17000
C1527       C  0.00993928  0.83363351  0.54962987    -0.17000
C1528       C  0.02790364  0.83369868  0.45143733    -0.17000
H1529       H  0.02360760  0.58735694  0.47434004     0.15900
H1530       H  0.02060347  0.58667466  0.52875432     0.15900
H1531       H  0.07960887  0.90372995  0.47690536     0.12700
H1532       H  0.06961332  0.90341853  0.53121078     0.15900
H1533       H  0.96359379  0.71942628  0.40116876     0.14200
H1534       H  0.98146449  0.80638697  0.40139328     0.14200
H1535       H  0.94995110  0.71338205  0.59809645     0.14200
H1536       H  0.95831376  0.80221778  0.59704603     0.14200
H1537       H  0.98033254  0.71714966  0.49978347     0.27400
H1538       H  0.99490578  0.79331936  0.49907749     0.27400
N1539       N  0.67559386  0.95037737  0.49867807    -0.35300
N1540       N  0.73902092  0.96162652  0.54406694    -0.55900
N1541       N  0.81428526  0.97380497  0.50601942    -0.35300
N1542       N  0.75279930  0.96187632  0.46090904    -0.55900
C1543       C  0.64656884  0.95805619  0.51962681     0.28200
C1544       C  0.65403502  0.96320710  0.47508572     0.28200
C1545       C  0.83259741  0.98997959  0.52970135     0.28200
C1546       C  0.84000878  0.98933081  0.48482042     0.28200
C1547       C  0.70213419  0.94556698  0.55755294     0.36900
C1548       C  0.77462035  0.95930773  0.56200626     0.36900
C1549       C  0.71868842  0.95394231  0.44286161     0.36900
C1550       C  0.79152433  0.96253378  0.44613042     0.36900
C1551       C  0.60548266  0.97437141  0.50910798    -0.20600
C1552       C  0.61025429  0.97771190  0.48096424    -0.20600
C1553       C  0.87094547  0.01545092  0.52349060    -0.20600
C1554       C  0.87564346  0.01499402  0.49529620    -0.20600
C1555       C  0.71467732  0.93113277  0.58380684    -0.21700
C1556       C  0.76000921  0.94119983  0.58699765    -0.21700
C1557       C  0.73563856  0.94799804  0.41661539    -0.21700
C1558       C  0.78165671  0.95392178  0.41855957    -0.21700
C1559       C  0.65666177  0.95109272  0.54791489    -0.17000
C1560       C  0.67270418  0.96181749  0.44838866    -0.17000
C1561       C  0.83341124  0.97896653  0.45650776    -0.17000
C1562       C  0.81804363  0.97863236  0.55675574    -0.17000
H1563       H  0.57554913  0.98411962  0.52045682     0.15900
H1564       H  0.58457021  0.99004539  0.46653924     0.15900
H1565       H  0.89398488  0.03201810  0.53768746     0.15900
H1566       H  0.90280549  0.03137193  0.48406000     0.15900
H1567       H  0.69285980  0.91729447  0.59967012     0.14200
H1568       H  0.77864505  0.93701268  0.60615960     0.14200
H1569       H  0.71644964  0.94346134  0.39763688     0.14200
H1570       H  0.80384525  0.95530629  0.40096342     0.14200
H1571       H  0.70735957  0.93482942  0.50023352     0.27400
H1572       H  0.78895622  0.94930762  0.50479296     0.27400
C1573       C  0.50031970  0.71276742  0.26676826     0.87700
C1574       C  0.54643233  0.71455348  0.25242864    -0.52500
C1575       C  0.55195629  0.75159998  0.23570832     0.10700
C1576       C  0.01234846  0.79326360  0.23770534     0.21600
C1577       C  0.02324003  0.76616232  0.28505953    -0.53200
C1578       C  0.01998933  0.80394025  0.26844375     0.10800
C1579       C  0.97126237  0.72705320  0.25457478    -0.52700
C1580       C  0.96890974  0.76411382  0.23729542     0.11300
H1581       H  0.57275050  0.68914098  0.25562109     0.15900
H1582       H  0.01080191  0.82359092  0.22400742     0.01600
H1583       H  0.02867345  0.76782064  0.30724166     0.16200
H1584       H  0.94326634  0.70386839  0.25802027     0.16000
C1585       C  0.02325039  0.84951756  0.28064101    -0.15200
C1586       C  0.00335908  0.88794470  0.27072223    -0.30300
H1587       H  0.48750131  0.86852815  0.25856287     0.13900
H1588       H  0.98593143  0.88860873  0.25085604     0.14400
C1589       C  0.49503769  0.67132976  0.28540993    -0.15200
C1590       C  0.49971532  0.62856933  0.27616471    -0.30300
H1591       H  0.03172358  0.68265806  0.30940111     0.13900
H1592       H  0.50582830  0.62321907  0.25437043     0.14400
C1593       C  0.48738072  0.60700989  0.42028439    -0.15200
C1594       C  0.47150089  0.60216261  0.44606368    -0.30300
H1595       H  0.49669118  0.64042989  0.41277306     0.13900
H1596       H  0.97253940  0.60711928  0.43512038     0.14400
C1597       C  0.02478528  0.87456188  0.43324851    -0.15200
C1598       C  0.03972352  0.87658037  0.40717792    -0.30300
H1599       H  0.00825000  0.90402851  0.44184527     0.13900
H1600       H  0.50782025  0.84627254  0.41737678     0.14400
C1601       C  0.61415097  0.94833120  0.41352280    -0.15200
C1602       C  0.64442026  0.97618594  0.42473960    -0.30300
H1603       H  0.60837439  0.91517746  0.42275416     0.13900
H1604       H  0.61831071  0.54563298  0.42551866     0.14400
C1605       C  0.88661053  0.96432525  0.41776407    -0.15200
C1606       C  0.86973445  0.99228464  0.43680142    -0.30300
H1607       H  0.87356968  0.93016944  0.41584096     0.13900
H1608       H  0.88632098  0.50369787  0.44005657     0.14400
C1609       C  0.60719151  0.48706698  0.58987009    -0.15200
C1610       C  0.61818066  0.95458379  0.56788646    -0.30300
H1611       H  0.63993675  0.49920118  0.59730050     0.13900
H1612       H  0.58479343  0.94185808  0.56196471     0.14400
C1613       C  0.86365779  0.95828570  0.59844666    -0.15200
C1614       C  0.84942965  0.98972997  0.58019665    -0.30300
H1615       H  0.85131509  0.92385345  0.59677007     0.13900
H1616       H  0.85008425  0.51434688  0.58309866     0.14400
C1617       C  0.46864367  0.60422574  0.59366082    -0.15200
C1618       C  0.49511241  0.64009417  0.58814062    -0.30300
H1619       H  0.43853865  0.59860492  0.58087159     0.13900
H1620       H  0.01019196  0.64387848  0.59241161     0.14400
C1621       C  0.00030113  0.87483913  0.56583152    -0.15200
C1622       C  0.00800813  0.87948278  0.59299944    -0.30300
H1623       H  0.98863118  0.90414500  0.55395756     0.13900
H1624       H  0.52836784  0.84991877  0.59403055     0.14400
C1625       C  0.59431964  0.76031109  0.22058109    -0.15200
C1626       C  0.61518316  0.72635949  0.20794058    -0.30300
H1627       H  0.60808407  0.79434591  0.21975312     0.13900
H1628       H  0.59867936  0.69352687  0.20683989     0.14400
C1629       C  0.89507377  0.74604003  0.21528426    -0.15200
C1630       C  0.92795452  0.77635082  0.22052185    -0.30300
H1631       H  0.89873367  0.71138091  0.22242854     0.13900
H1632       H  0.92470491  0.81077699  0.21273914     0.14400
C1633       C  0.72774098  0.59932950  0.07352857    -0.15200
C1634       C  0.69639382  0.61471500  0.09092298    -0.30300
H1635       H  0.76272073  0.61124394  0.07490870     0.13900
H1636       H  0.66103248  0.60420156  0.08908911     0.14400
C1637       C  0.77868981  0.88562202  0.07253420    -0.15200
C1638       C  0.75496309  0.84829692  0.07785708    -0.30300
H1639       H  0.80765469  0.89437621  0.08558801     0.13900
H1640       H  0.72570666  0.83890033  0.06524376     0.14400
C1641       C  0.73724660  0.62814891  0.93159162    -0.15200
C1642       C  0.76636478  0.62799720  0.91051316    -0.30300
H1643       H  0.71819517  0.65849778  0.93608373     0.13900
H1644       H  0.78611137  0.59796191  0.90602391     0.14400
C1645       C  0.76171640  0.87042648  0.90691021    -0.15200
C1646       C  0.78455559  0.87967741  0.93021420    -0.30300
H1647       H  0.73338851  0.89116423  0.89970808     0.13900
H1648       H  0.81173406  0.85686442  0.93688137     0.14400
C1649       C  0.51360821  0.66001519  0.71798151    -0.15200
C1650       C  0.48413632  0.64432779  0.69919855    -0.30300
H1651       H  0.54332246  0.63933320  0.72297183     0.13900
H1652       H  0.94109134  0.64449257  0.70056443     0.14400
C1653       C  0.01135574  0.83627685  0.71935811    -0.15200
C1654       C  0.99151019  0.85557744  0.69702917    -0.30300
H1655       H  0.51631921  0.82921012  0.69649819     0.13900
H1656       H  0.97067291  0.83478029  0.68356041     0.14400
C1657       C  0.58174870  0.75709902  0.78948431    -0.15200
C1658       C  0.60580578  0.72392926  0.80212551    -0.30300
H1659       H  0.59492145  0.79132679  0.78832766     0.13900
H1660       H  0.59069766  0.69048776  0.80385538     0.14400
C1661       C  0.88160242  0.73149064  0.77464154    -0.15200
C1662       C  0.92463445  0.74598862  0.77886274    -0.30300
H1663       H  0.87228114  0.71643186  0.75506608     0.13900
H1664       H  0.93250365  0.76542189  0.79717811     0.14400
C1665       C  0.83486111  0.99986810  0.71648292    -0.15200
C1666       C  0.87809272  0.01198237  0.72263806    -0.30300
H1667       H  0.81186557  0.51158801  0.68915158     0.13900
H1668       H  0.88626960  0.02477974  0.74300878     0.14400
C1669       C  0.64730151  0.48248352  0.72492991    -0.15200
C1670       C  0.60715070  0.50196456  0.73220160    -0.30300
H1671       H  0.67741637  0.97769899  0.70488791     0.13900
H1672       H  0.60462484  0.51996770  0.75149849     0.14400
C1673       C  0.75567318  0.57921150  0.78002729    -0.15200
C1674       C  0.75043267  0.62102250  0.76893907    -0.30300
H1675       H  0.76497830  0.57563847  0.80171756     0.13900
H1676       H  0.74015180  0.62514124  0.74744896     0.14400
C1677       C  0.76045065  0.91159256  0.78030441    -0.15200
C1678       C  0.78610659  0.89434714  0.80089720    -0.30300
H1679       H  0.73861325  0.88947320  0.76827743     0.13900
H1680       H  0.81129958  0.91525468  0.81123700     0.14400
C1681       C  0.64427431  0.76229085  0.06021279    -0.15200
C1682       C  0.64499712  0.77771609  0.08636529    -0.30300
H1683       H  0.67241825  0.74131050  0.05358045     0.13900
H1684       H  0.61785627  0.79901729  0.09392459     0.14400
C1685       C  0.89943386  0.74645405  0.09805488    -0.15200
C1686       C  0.89535250  0.72915174  0.07233846    -0.30300
H1687       H  0.92970072  0.76543903  0.10371186     0.13900
H1688       H  0.86273129  0.71485254  0.06616658     0.14400
C1689       C  0.63100084  0.72666506  0.91971384    -0.15200
C1690       C  0.63071832  0.74403784  0.89391562    -0.30300
H1691       H  0.65937594  0.70566618  0.92639090     0.13900
H1692       H  0.60562814  0.76940469  0.88792961     0.14400
C1693       C  0.89144046  0.74425666  0.92784107    -0.15200
C1694       C  0.89962210  0.76522924  0.90343717    -0.30300
H1695       H  0.85733993  0.73206445  0.93231181     0.13900
H1696       H  0.93262379  0.78055879  0.89961261     0.14400
C1697       C  0.83302519  0.98148079  0.28860345    -0.15200
C1698       C  0.85834238  0.00889462  0.30464384    -0.30300
H1699       H  0.84224117  0.94613181  0.28680928     0.13900
H1700       H  0.83787978  0.55428463  0.31003767     0.14400
C1701       C  0.67221878  0.98927948  0.28333447    -0.15200
C1702       C  0.62866350  0.99814807  0.27560841    -0.30300
H1703       H  0.67934966  0.97342263  0.30323769     0.13900
H1704       H  0.66145272  0.56012240  0.29929828     0.14400
C1705       C  0.75556753  0.58916068  0.22228328    -0.15200
C1706       C  0.75693360  0.59976225  0.19513399    -0.30300
H1707       H  0.75344304  0.61679474  0.23680819     0.13900
H1708       H  0.75939516  0.57356612  0.17977050     0.14400
C1709       C  0.75709600  0.88558628  0.22223923    -0.15200
C1710       C  0.76021554  0.92794504  0.21194463    -0.30300
H1711       H  0.75243979  0.88000170  0.24415912     0.13900
H1712       H  0.76542524  0.93247818  0.18990010     0.14400
loop_ 
_geom_bond_atom_site_label_1 
_geom_bond_atom_site_label_2 
_geom_bond_distance 
_geom_bond_site_symmetry_2 
_ccdc_geom_bond_type 
C1            C2   1.538   1_545  S
C1            C7   1.532       .  S
C1            C5   1.528       .  S
C1          C421   1.518       .  S
C2          H437   1.085       .  S
C2          C431   1.373       .  D
C3            C4   1.536       .  S
C3          C430   1.371       .  D
C3          C426   1.474       .  S
C4            C8   1.535       .  S
C4            C6   1.530       .  S
C4           H10   1.112       .  S
C5           H11   1.086       .  S
C5          C434   1.366   1_545  D
C6          C433   1.365       .  D
C6          C417   1.475       .  S
C7           H12   1.087       .  S
C7          C436   1.365       .  D
C8          C435   1.366       .  D
C8          C413   1.475       .  S
H9          C430   1.086       .  S
N13          C18   1.357       .  A
N13          C17   1.354   1_556  A
N13          H45   1.040       .  S
N14          C22   1.349       .  A
N14         C877   1.349   1_455  A
N15          C20   1.353   1_554  A
N15          C19   1.352       .  A
N15          H46   1.038       .  S
N16          C24   1.353   1_655  A
N16         C879   1.351       .  A
C17          C25   1.388       .  A
C17          C33   1.419       .  A
C18          C34   1.420       .  A
C18          C26   1.387       .  A
C19          C27   1.388       .  A
C19          C36   1.414       .  A
C20          C35   1.417       .  A
C20          C28   1.388       .  A
C21         N870   1.354       .  A
C21          C33   1.418       .  A
C21          C29   1.387       .  A
C22          C36   1.410       .  A
C22          C30   1.388       .  A
C23         N872   1.347       .  A
C23          C31   1.386       .  A
C23          C34   1.407       .  A
C24          C32   1.386       .  A
C24          C35   1.416       .  A
C25          C26   1.380   1_554  A
C25          H37   1.083       .  S
C26          H38   1.082       .  S
C27          C28   1.375   1_554  A
C27          H39   1.081       .  S
C28          H40   1.082       .  S
C29         C886   1.372       .  A
C29          H41   1.081       .  S
C30         C885   1.369   1_455  A
C30          H42   1.082       .  S
C31         C888   1.372       .  A
C31          H43   1.082       .  S
C32         C887   1.371   1_455  A
C32          H44   1.082       .  S
C33         C402   1.494       .  S
C34         C409   1.491       .  S
C35         C405   1.496       .  S
C36         C397   1.475       .  S
C47          C48   1.531       .  S
C47          C53   1.531       .  S
C47          C51   1.537       .  S
C47         C389   1.519       .  S
C48          H55   1.085       .  S
C48         C477   1.367       .  D
C49          C50   1.561       .  S
C49         C476   1.377       .  D
C49         C813   1.505       .  S
C50          C54   1.550       .  S
C50          C52   1.544       .  S
C50          H56   1.110       .  S
C51         H485   1.086   1_545  S
C51         C480   1.374   1_545  D
C52         C479   1.368       .  D
C52         C393   1.485       .  S
C53          H58   1.087       .  S
C53         C482   1.363       .  D
C54         C481   1.364       .  D
C54         C381   1.482       .  S
H57         C479   1.087       .  S
C59          C60   1.552       .  S
C59          C63   1.550       .  S
C59         C365   1.545       .  S
C59         C921   1.534   1_455  S
C60          H67   1.086       .  S
C60         C917   1.375       .  D
C61          C62   1.536       .  S
C61         C916   1.373       .  D
C61         C369   1.478       .  S
C62          C66   1.536       .  S
C62         C920   1.542       .  S
C62          H68   1.109       .  S
C63          H69   1.086       .  S
C63          C64   1.375       .  D
C64         C918   1.535       .  S
C64         C373   1.486       .  S
C65         C915   1.543       .  S
C65          H70   1.086       .  S
C65          C66   1.375       .  D
C66         C378   1.500       .  S
N71          C76   1.357       .  A
N71          C75   1.353   1_554  A
N71         H103   1.039       .  S
N72          C79   1.349       .  A
N72         C508   1.354   1_545  A
N73          C78   1.347       .  A
N73          C77   1.350   1_554  A
N73         H104   1.041       .  S
N74          C81   1.346       .  A
N74         C510   1.345   1_545  A
C75          C83   1.391       .  A
C75          C91   1.420       .  A
C76          C92   1.420       .  A
C76          C84   1.386       .  A
C77          C85   1.386       .  A
C77          C94   1.405       .  A
C78          C93   1.406       .  A
C78          C86   1.390       .  A
C79          C91   1.416       .  A
C79          C87   1.389       .  A
C80         N500   1.351       .  A
C80          C94   1.412       .  A
C80          C88   1.387       .  A
C81          C89   1.388       .  A
C81          C92   1.407       .  A
C82         N502   1.351       .  A
C82          C90   1.386       .  A
C82          C93   1.411       .  A
C83          C84   1.381   1_556  A
C83          H95   1.082       .  S
C84          H96   1.082       .  S
C85          C86   1.373   1_556  A
C85          H97   1.082       .  S
C86          H98   1.083       .  S
C87         C516   1.372   1_545  A
C87          H99   1.080       .  S
C88         C515   1.373       .  A
C88         H100   1.081       .  S
C89         C518   1.370   1_545  A
C89         H101   1.082       .  S
C90         C517   1.372       .  A
C90         H102   1.081       .  S
C91         C357   1.481       .  S
C92         C349   1.491       .  S
C93         C353   1.474       .  S
C94         C362   1.483       .  S
O105        C113   1.263       .  A
O105       Co125   1.995       .  S
O106        C114   1.275       .  A
O106       Co126   2.019       .  S
O107        C115   1.253       .  A
O107       Co127   1.938       .  S
O108        C116   1.264       .  A
O108       Co128   1.894       .  S
O109        C115   1.277       .  A
O109       Co126   2.064       .  S
O110        C116   1.295       .  A
O110       Co125   2.104       .  S
O111        C114   1.270       .  A
O111       Co128   1.973       .  S
O112        C113   1.256       .  A
O112       Co127   1.978       .  S
C113        C361   1.468       .  S
C114        C374   1.465       .  S
C115        C394   1.497       .  S
C116        C406   1.469       .  S
O117        C130   1.264       .  A
O117       Co125   1.872       .  S
O118        C131   1.252       .  A
O118       Co126   1.940       .  S
O119        C132   1.271       .  A
O119       Co127   2.012       .  S
O120        C133   1.262       .  A
O120       Co128   2.017       .  S
O121        C133   1.254       .  A
O121       Co126   1.971       .  S
O122        C132   1.266       .  A
O122       Co125   1.970       .  S
O123        C130   1.300       .  A
O123       Co128   2.122       .  S
O124        C131   1.280       .  A
O124       Co127   2.066       .  S
Co125       O129   2.004       .  S
Co126       O129   2.024       .  S
Co127       O129   2.040       .  S
Co128       O129   2.020       .  S
C130        C358   1.454       .  S
C131        C377   1.483       .  S
C132        C410   1.468       .  S
C133        C390   1.484       .  S
O134        C142   1.262       .  A
O134       Co154   1.979       .  S
O135        C143   1.259       .  A
O135       Co155   1.976       .  S
O136        C144   1.248       .  A
O136       Co156   1.973       .  S
O137        C145   1.253       .  A
O137       Co157   1.966       .  S
O138        C144   1.261       .  A
O138       Co155   1.993       .  S
O139        C145   1.265       .  A
O139       Co154   2.009       .  S
O140        C143   1.262       .  A
O140       Co157   1.986       .  S
O141        C142   1.261       .  A
O141       Co156   1.987       .  S
C142        C425   1.467       .  S
C143        C398   1.454       .  S
C144        C354   1.466       .  S
C145        C342   1.476       .  S
O146        C159   1.261       .  A
O146       Co154   1.957       .  S
O147        C160   1.279       .  A
O147       Co155   2.025       .  S
O148        C161   1.257       .  A
O148       Co156   1.993       .  S
O149        C162   1.274       .  A
O149       Co157   2.033       .  S
O150        C162   1.258       .  A
O150       Co155   1.928       .  S
O151        C161   1.261       .  A
O151       Co154   1.992       .  S
O152        C159   1.277       .  A
O152       Co157   2.035       .  S
O153        C160   1.270       .  A
O153       Co156   1.969       .  S
Co154       O158   2.073       .  S
Co155       O158   2.088       .  S
Co156       O158   1.979       .  S
Co157       O158   2.082       .  S
C159        C422   1.473       .  S
C160        C401   1.480       .  S
C161        C345   1.465       .  S
C162        C350   1.469       .  S
O163       C1027   1.263       .  A
O163      Co1467   1.983       .  S
O164        C172   1.265       .  A
O164       Co184   1.932       .  S
O165        C173   1.260       .  A
O165       Co185   1.976   1_655  S
O166        C174   1.265       .  A
O166       Co186   2.038       .  S
O167       C1029   1.242       .  A
O167       Co612   1.887       .  S
O168        C602   1.257   1_545  A
O168      Co1467   1.970       .  S
O169        C172   1.276       .  A
O169       Co186   2.063       .  S
O170        C171   1.257       .  A
O170       Co185   1.964   1_655  S
C171        C366   1.500       .  S
C171       O1019   1.281   1_655  A
C172        C329   1.468       .  S
C173        C333   1.479       .  S
C173       O1023   1.265       .  A
C174        C382   1.489       .  S
C174        O596   1.252       .  A
O175       C1044   1.276       .  A
O175       Co183   2.048       .  S
O176        C617   1.298       .  A
O176      Co1040   2.106   1_455  S
O177        C190   1.277       .  A
O177       Co185   2.036       .  S
O178        C191   1.282       .  A
O178       Co186   2.040       .  S
O179       C1047   1.264       .  A
O179      Co1040   2.012       .  S
O180        C618   1.282       .  A
O180       Co183   2.040   1_455  S
O181        C188   1.253       .  A
O181       Co186   1.940       .  S
O182        C189   1.270       .  A
O182       Co185   2.006       .  S
Co183      O1447   1.984       .  S
Co183      O1452   1.969       .  S
Co183      O1043   2.032       .  S
Co184       O595   2.006       .  S
Co184      O1032   1.991       .  S
Co184      O1035   1.910       .  S
Co184       O187   1.913       .  S
Co185      O1471   2.041       .  S
Co186       O187   2.148       .  S
O187      Co1039   2.047       .  S
O187      Co1469   2.060       .  S
C188        C370   1.476       .  S
C188       O1031   1.274       .  A
C189        C325   1.465       .  S
C189        O604   1.266   1_545  A
C190        C386   1.482       .  S
C190        O608   1.262       .  A
C191        C338   1.452       .  S
C191       O1035   1.272       .  A
O192        C200   1.261       .  A
O192       Co212   1.994   1_455  S
O193       C1057   1.263   1_655  A
O193       Co213   2.016       .  S
O194        C630   1.259   1_565  A
O194       Co214   1.962   1_565  S
O195        C203   1.265       .  A
O195       Co215   2.008       .  S
O196        C202   1.255       .  A
O196       Co213   1.958   1_455  S
O197       C1059   1.265       .  A
O197       Co212   1.993       .  S
O198        C201   1.287       .  A
O198       Co215   2.094       .  S
O199        C628   1.266       .  A
O199       Co214   1.953   1_565  S
C200        C418   1.470       .  S
C200        O627   1.254       .  A
C201        C314   1.465       .  S
C201       O1049   1.265       .  A
C202        C317   1.440       .  S
C202        O622   1.260       .  A
C203        C302   1.490       .  S
C203       O1053   1.264       .  A
O204        C217   1.276       .  A
O204      Co1068   2.008       .  S
O205       C1074   1.258       .  A
O205      Co1497   1.952   1_545  S
O206        C219   1.264       .  A
O206       Co214   2.032       .  S
O207        C220   1.268       .  A
O207       Co215   1.924       .  S
O208        C220   1.287       .  A
O208      Co1069   2.068       .  S
O209        C219   1.249   1_655  A
O209       Co640   1.967       .  S
O210        C217   1.270       .  A
O210       Co215   1.959       .  S
O211        C218   1.280       .  A
O211       Co214   2.039       .  S
Co212      O1060   1.978       .  S
Co212       O637   1.962       .  S
Co212       O216   2.072   1_655  S
Co213      O1489   1.936       .  S
Co213      O1064   2.011       .  S
Co213       O216   2.094   1_655  S
Co214       O644   2.069       .  S
Co215      O1072   2.016       .  S
O216       Co642   2.083       .  S
O216      Co1071   1.979   1_455  S
C217        C414   1.460       .  S
C218        C309   1.474       .  S
C218       O1061   1.268   1_455  A
C219        C306   1.486       .  S
C220        C321   1.481       .  S
N221        C226   1.352       .  A
N221        C225   1.350       .  A
N221        H253   1.039       .  S
N222        C229   1.344       .  A
N222        C230   1.350       .  A
N223        C228   1.344       .  A
N223        C227   1.344       .  A
N223        H254   1.041       .  S
N224        C231   1.342       .  A
N224        C232   1.345       .  A
C225        C233   1.390       .  A
C225        C241   1.412       .  A
C226        C242   1.409       .  A
C226        C234   1.386       .  A
C227        C235   1.387       .  A
C227        C244   1.399       .  A
C228        C243   1.395       .  A
C228        C236   1.387       .  A
C229        C241   1.408       .  A
C229        C237   1.387       .  A
C230        C244   1.407       .  A
C230        C238   1.384       .  A
C231        C239   1.386       .  A
C231        C242   1.398       .  A
C232        C240   1.387       .  A
C232        C243   1.404       .  A
C233        C234   1.375       .  A
C233        H245   1.082       .  S
C234        H246   1.083       .  S
C235        C236   1.371       .  A
C235        H247   1.083       .  S
C236        H248   1.082       .  S
C237        C238   1.377       .  A
C237        H249   1.082       .  S
C238        H250   1.081       .  S
C239        C240   1.373       .  A
C239        H251   1.083       .  S
C240        H252   1.082       .  S
C241       C1166   1.472       .  S
C242       C1190   1.467       .  S
C243        C337   1.460       .  S
C244        C313   1.474       .  S
N255        C260   1.348       .  A
N255        C259   1.354       .  A
N255        H287   1.033       .  S
N256        C263   1.354       .  A
N256        C264   1.350       .  A
N257        C262   1.360       .  A
N257        C261   1.353       .  A
N257        H288   1.037       .  S
N258        C265   1.347       .  A
N258        C266   1.351       .  A
C259        C267   1.388       .  A
C259        C275   1.415       .  A
C260        C276   1.413       .  A
C260        C268   1.389       .  A
C261        C269   1.388       .  A
C261        C278   1.421       .  A
C262        C277   1.423       .  A
C262        C270   1.387       .  A
C263        C275   1.416       .  A
C263        C271   1.385       .  A
C264        C278   1.416       .  A
C264        C272   1.387       .  A
C265        C273   1.388       .  A
C265        C276   1.408       .  A
C266        C274   1.386       .  A
C266        C277   1.410       .  A
C267        C268   1.373       .  A
C267        H279   1.082       .  S
C268        H280   1.082       .  S
C269        C270   1.379       .  A
C269        H281   1.083       .  S
C270        H282   1.082       .  S
C271        C272   1.365       .  A
C271        H283   1.080       .  S
C272        H284   1.080       .  S
C273        C274   1.368       .  A
C273        H285   1.082       .  S
C274        H286   1.082       .  S
C275        C326   1.490       .  S
C276        C318   1.463       .  S
C277        C322   1.500       .  S
C278        C330   1.485       .  S
C289        C290   1.532   1_655  S
C289        C305   1.530   1_655  S
C289       C1151   1.535       .  S
C289       C1149   1.540       .  S
C290        H297   1.083       .  S
C290        C291   1.363       .  D
C291       C1148   1.544   1_455  S
C291        C341   1.485       .  S
C292        C296   1.537       .  S
C292        C294   1.539       .  S
C292       C1147   1.536       .  S
C292        H298   1.111       .  S
C293       C1145   1.550       .  S
C293        H299   1.085       .  S
C293        C294   1.376       .  D
C294        C301   1.492       .  S
C295       C1145   1.530       .  S
C295        H300   1.087       .  S
C295        C296   1.360       .  D
C296        C346   1.475       .  S
C301       H1159   1.087       .  S
C301        C302   1.347       .  D
C302        H304   1.086       .  S
H303       C1157   1.086   1_455  S
C305       H1163   1.087   1_455  S
C305        C306   1.358       .  D
C306        H308   1.083       .  S
H307       C1161   1.087       .  S
C309        H311   1.086       .  S
C309        C310   1.349   1_455  D
C310       H1168   1.087       .  S
C310       C1097   1.494       .  S
H312       C1166   1.087       .  S
C313        H315   1.089       .  S
C313        C314   1.334       .  D
C314       H1172   1.086       .  S
H316       C1170   1.086       .  S
C317        H319   1.087       .  S
C317        C318   1.328       .  D
C318        H748   1.088       .  S
H320        C746   1.087       .  S
C321        H323   1.086       .  S
C321        C322   1.355       .  D
C322        H752   1.087       .  S
H324        C750   1.086       .  S
C325        H327   1.087       .  S
C325        C754   1.339   1_545  D
C326        H328   1.087       .  S
C326        C753   1.342       .  D
C329        H331   1.086       .  S
C329        C330   1.348       .  D
C330        H760   1.088       .  S
H332        C758   1.088       .  S
C333        H335   1.083       .  S
C333        C334   1.348       .  D
C334       H1192   1.086       .  S
C334       C1098   1.511       .  S
H336       C1190   1.089       .  S
C337        H339   1.088       .  S
C337        C338   1.327       .  D
C338       H1196   1.087       .  S
H340       C1194   1.087       .  S
C341        H343   1.086       .  S
C341        C342   1.351       .  D
C342        H344   1.087       .  S
C345        H347   1.086       .  S
C345        C346   1.344       .  D
C346        H348   1.087       .  S
C349        H351   1.088       .  S
C349        C350   1.353       .  D
C350        H352   1.086       .  S
C353        H355   1.088       .  S
C353        C354   1.340       .  D
C354        H356   1.086       .  S
C357        H359   1.087       .  S
C357        C358   1.336       .  D
C358        H360   1.086       .  S
C361        H363   1.087       .  S
C361        C362   1.340       .  D
C362        H364   1.087       .  S
C365        H367   1.086       .  S
C365        C366   1.358   1_455  D
C366       H1224   1.086       .  S
H368       C1222   1.086       .  S
C369       H1227   1.087       .  S
C369        C370   1.352       .  D
C370        H372   1.084       .  S
H371       C1225   1.087       .  S
C373        H375   1.088       .  S
C373        C374   1.338       .  D
C374        H376   1.084       .  S
C377        H379   1.087       .  S
C377        C378   1.342       .  D
C378        H380   1.086       .  S
C381        H811   1.087       .  S
C381        C382   1.348       .  D
C382        H384   1.086       .  S
H383        C809   1.087       .  S
C385        H815   1.086   1_545  S
C385        C386   1.353       .  D
C385        C477   1.492       .  S
C386        H388   1.086       .  S
H387        C813   1.086       .  S
C389        H391   1.087       .  S
C389        C390   1.352       .  D
C390        H392   1.086       .  S
C393        H395   1.087       .  S
C393        C394   1.355       .  D
C394        H396   1.085       .  S
C397        H399   1.088       .  S
C397        C398   1.334       .  D
C398        H400   1.086       .  S
C401        H403   1.086       .  S
C401        C402   1.352       .  D
C402        H404   1.088       .  S
C405        H407   1.087       .  S
C405        C406   1.346       .  D
C406        H408   1.085       .  S
C409        H411   1.087       .  S
C409        C410   1.347       .  D
C410        H412   1.086       .  S
C413        H415   1.087       .  S
C413        C414   1.340       .  D
C414        H844   1.086       .  S
H416        C842   1.085       .  S
C417        H419   1.086       .  S
C417        C418   1.343       .  D
C418        H848   1.087       .  S
H420        C846   1.086   1_545  S
C421        H423   1.086       .  S
C421        C422   1.344       .  D
C422        H424   1.087       .  S
C425        H427   1.087       .  S
C425        C426   1.339       .  D
C426        H428   1.086       .  S
C429        C430   1.533       .  S
C429        C435   1.535       .  S
C429        C433   1.532       .  S
C429        C849   1.512       .  S
C431        C432   1.537       .  S
C431        C854   1.478       .  S
C432        C436   1.541   1_565  S
C432        C434   1.541       .  S
C432        H438   1.111       .  S
C433        H439   1.086       .  S
C434        C845   1.483       .  S
C435        H440   1.086       .  S
C436        C841   1.480       .  S
N441        C446   1.352       .  A
N441        C445   1.351   1_556  A
N441        H473   1.039       .  S
N442       C1305   1.355   1_455  A
N442        C450   1.351       .  A
N443        C448   1.355       .  A
N443        C447   1.350   1_556  A
N443        H474   1.036       .  S
N444       C1307   1.348   1_455  A
N444        C452   1.352       .  A
C445        C453   1.386       .  A
C445        C461   1.410       .  A
C446        C462   1.413       .  A
C446        C454   1.388       .  A
C447        C455   1.391       .  A
C447        C464   1.417       .  A
C448        C463   1.414       .  A
C448        C456   1.385       .  A
C449       N1298   1.355       .  A
C449        C461   1.412       .  A
C449        C457   1.384       .  A
C450        C464   1.414       .  A
C450        C458   1.388       .  A
C451       N1300   1.350       .  A
C451        C459   1.386       .  A
C451        C462   1.411       .  A
C452        C460   1.383       .  A
C452        C463   1.407       .  A
C453        C454   1.377   1_554  A
C453        H465   1.083       .  S
C454        H466   1.082       .  S
C455        C456   1.376   1_554  A
C455        H467   1.081       .  S
C456        H468   1.083       .  S
C457       C1314   1.370       .  A
C457        H469   1.082       .  S
C458       C1313   1.370   1_455  A
C458        H470   1.082       .  S
C459       C1316   1.372       .  A
C459        H471   1.082       .  S
C460       C1315   1.370   1_455  A
C460        H472   1.082       .  S
C461        C830   1.488       .  S
C462        C837   1.484       .  S
C463        C833   1.490       .  S
C464        C825   1.475       .  S
C475        C476   1.538       .  S
C475        C481   1.525       .  S
C475        C479   1.532       .  S
C475        C817   1.529       .  S
C476        H483   1.086       .  S
C477        C478   1.552   1_545  S
C478        C482   1.552   1_565  S
C478        C480   1.548       .  S
C478        H484   1.110       .  S
C480        C821   1.494       .  S
C481        H486   1.087       .  S
C482        C809   1.494       .  S
C487        C488   1.548       .  S
C487       C1349   1.545   1_455  S
C487        C491   1.542       .  S
C487        C793   1.540       .  S
C488        H495   1.086       .  S
C488       C1345   1.375       .  D
C489        C490   1.548       .  S
C489       C1344   1.371       .  D
C489        C797   1.487       .  S
C490        C494   1.555       .  S
C490       C1348   1.542       .  S
C490        H496   1.109       .  S
C491        H497   1.086       .  S
C491        C492   1.368       .  D
C492       C1346   1.531       .  S
C492        C801   1.485       .  S
C493       C1343   1.537       .  S
C493        H498   1.086       .  S
C493        C494   1.373       .  D
C494        C806   1.498       .  S
N499        C504   1.356   1_556  A
N499        C503   1.359       .  A
N499        H531   1.042   1_556  S
N500        C507   1.347       .  A
N501        C506   1.352       .  A
N501        C505   1.352   1_554  A
N501        H532   1.040       .  S
N502        C509   1.350       .  A
C503        C511   1.389       .  A
C503        C519   1.427       .  A
C504        C520   1.422       .  A
C504        C512   1.386       .  A
C505        C513   1.387       .  A
C505        C522   1.415       .  A
C506        C521   1.411       .  A
C506        C514   1.388       .  A
C507        C519   1.406       .  A
C507        C515   1.386       .  A
C508        C522   1.414       .  A
C508        C516   1.384       .  A
C509        C517   1.386       .  A
C509        C520   1.410       .  A
C510        C518   1.385       .  A
C510        C521   1.400       .  A
C511        C512   1.384   1_556  A
C511        H523   1.081       .  S
C512        H524   1.082       .  S
C513        C514   1.375   1_556  A
C513        H525   1.082       .  S
C514        H526   1.082       .  S
C515        H527   1.082       .  S
C516        H528   1.080       .  S
C517        H529   1.082       .  S
C518        H530   1.082       .  S
C519        C785   1.495       .  S
C520        C777   1.498       .  S
C521        C781   1.468       .  S
C522        C790   1.496       .  S
O533        C541   1.259       .  A
O533       Co553   1.883       .  S
O534        C542   1.266       .  A
O534       Co554   1.975       .  S
O535        C543   1.258       .  A
O535       Co555   1.990       .  S
O536        C544   1.275       .  A
O536       Co556   2.025       .  S
O537        C543   1.262       .  A
O537       Co554   2.003       .  S
O538        C544   1.266       .  A
O538       Co553   1.979       .  S
O539        C542   1.272       .  A
O539       Co556   2.019       .  S
O540        C541   1.298       .  A
O540       Co555   2.128       .  S
C541        C789   1.476       .  S
C542        C802   1.479       .  S
C543        C822   1.483       .  S
C544        C834   1.478       .  S
O545        C558   1.257       .  A
O545       Co553   1.986       .  S
O546        C559   1.281       .  A
O546       Co554   2.037       .  S
O547        C560   1.262       .  A
O547       Co555   1.900       .  S
O548        C561   1.268       .  A
O548       Co556   1.978       .  S
O549        C561   1.273       .  A
O549       Co554   2.025       .  S
O550        C560   1.293       .  A
O550       Co553   2.093       .  S
O551        C558   1.267       .  A
O551       Co556   1.999       .  S
O552        C559   1.270       .  A
O552       Co555   1.978       .  S
Co553       O557   2.006       .  S
Co554       O557   2.052       .  S
Co555       O557   2.028       .  S
Co556       O557   2.070       .  S
C558        C786   1.476       .  S
C559        C805   1.487       .  S
C560        C838   1.469       .  S
C561        C818   1.490       .  S
O562        C570   1.263       .  A
O562       Co582   1.973       .  S
O563        C571   1.261       .  A
O563       Co583   1.983       .  S
O564        C572   1.250       .  A
O564       Co584   1.967       .  S
O565        C573   1.257       .  A
O565       Co585   1.979       .  S
O566        C572   1.259       .  A
O566       Co583   2.000       .  S
O567        C573   1.260       .  A
O567       Co582   1.990       .  S
O568        C571   1.262       .  A
O568       Co585   1.980       .  S
O569        C570   1.265       .  A
O569       Co584   2.001       .  S
C570        C853   1.473       .  S
C571        C826   1.452       .  S
C572        C782   1.451       .  S
C573        C770   1.472       .  S
O574        C587   1.260       .  A
O574       Co582   1.949       .  S
O575        C588   1.282       .  A
O575       Co583   2.034       .  S
O576        C589   1.255       .  A
O576       Co584   2.002       .  S
O577        C590   1.276       .  A
O577       Co585   2.040       .  S
O578        C590   1.259       .  A
O578       Co583   1.935       .  S
O579        C589   1.255       .  A
O579       Co582   1.976       .  S
O580        C587   1.276       .  A
O580       Co585   2.028       .  S
O581        C588   1.267       .  A
O581       Co584   1.954       .  S
Co582       O586   2.072       .  S
Co583       O586   2.092       .  S
Co584       O586   1.969       .  S
Co585       O586   2.079       .  S
C587        C850   1.465       .  S
C588        C829   1.477       .  S
C589        C773   1.463       .  S
C590        C778   1.476       .  S
O591       C1455   1.250       .  A
O591      Co1039   1.963       .  S
O592        C600   1.242   1_545  A
O592       Co612   1.897       .  S
O593        C601   1.304       .  A
O593       Co613   2.134   1_655  S
O594        C602   1.269       .  A
O594       Co614   2.041       .  S
O595       C1457   1.283       .  A
O596      Co1039   1.964       .  S
O597        C600   1.280       .  A
O597       Co614   2.077       .  S
O598        C599   1.265   1_455  A
O598       Co613   2.030       .  S
C599        C794   1.492       .  S
C599       O1447   1.257       .  A
C600        C757   1.470       .  S
C601        C761   1.478       .  S
C601       O1451   1.260       .  A
C602        C810   1.497       .  S
O603       C1472   1.266   1_455  A
O603       Co611   2.020       .  S
O604      Co1468   1.968   1_455  S
O605        C618   1.271       .  A
O605       Co613   1.990       .  S
O606        C619   1.266       .  A
O606       Co614   1.997       .  S
O607       C1475   1.268       .  A
O607      Co1468   1.894       .  S
O608       Co611   1.968   1_545  S
O609        C616   1.257       .  A
O609       Co614   1.944       .  S
O610        C617   1.266       .  A
O610       Co613   1.888       .  S
Co611      O1019   2.077   1_565  S
Co611      O1024   2.019   1_455  S
Co611      O1471   2.055   1_565  S
Co612      O1460   2.020       .  S
Co612      O1463   2.038   1_545  S
Co612       O615   1.963   1_545  S
Co613      O1043   2.035   1_455  S
Co614       O615   2.122       .  S
O615      Co1467   2.084   1_565  S
O615      Co1041   2.115   1_565  S
C616        C798   1.486       .  S
C616       O1459   1.279       .  A
C617        C753   1.471       .  S
C618        C814   1.495       .  S
C619        C766   1.493       .  S
C619       O1463   1.269       .  A
O620        C628   1.282   1_545  A
O620       Co640   2.040   1_455  S
O621       C1485   1.251       .  A
O621       Co641   2.055   1_465  S
O622       Co642   1.981       .  S
O623        C631   1.260       .  A
O623       Co643   1.958       .  S
O624        C630   1.275       .  A
O624       Co641   2.035   1_455  S
O625       C1487   1.269   1_655  A
O625       Co640   2.062   1_565  S
O626        C629   1.266       .  A
O626       Co643   1.931       .  S
O627       Co642   1.963       .  S
C628        C846   1.473       .  S
C629        C742   1.465       .  S
C629       O1477   1.280       .  A
C630        C745   1.468   1_545  S
C631        C730   1.489       .  S
C631       O1481   1.282       .  A
O632        C645   1.256   1_545  A
O632      Co1496   1.962       .  S
O633       C1502   1.265       .  A
O633      Co1069   2.026       .  S
O634        C647   1.277       .  A
O634       Co642   2.031       .  S
O635        C648   1.273       .  A
O635       Co643   2.076       .  S
O636        C648   1.242   1_545  A
O636      Co1497   1.932   1_545  S
O637        C647   1.264   1_655  A
O638        C645   1.266       .  A
O638       Co643   2.027       .  S
O639        C646   1.275       .  A
O639       Co642   2.038       .  S
Co640      O1488   1.947       .  S
Co640       O644   2.074   1_655  S
Co641      O1061   1.952       .  S
Co641      O1492   1.854       .  S
Co641       O644   1.989   1_655  S
Co643      O1500   2.048   1_565  S
O644      Co1499   2.098   1_445  S
C645        C842   1.483       .  S
C646        C737   1.480       .  S
C646       O1489   1.259   1_455  A
C647        C734   1.479       .  S
C648        C749   1.501       .  S
N649        C654   1.353       .  A
N649        C653   1.357       .  A
N649        H681   1.040       .  S
N650        C657   1.353       .  A
N650        C658   1.352       .  A
N651        C656   1.358       .  A
N651        C655   1.354       .  A
N651        H682   1.038       .  S
N652        C659   1.354       .  A
N652        C660   1.357       .  A
C653        C661   1.387       .  A
C653        C669   1.417       .  A
C654        C670   1.419       .  A
C654        C662   1.388       .  A
C655        C663   1.390       .  A
C655        C672   1.423       .  A
C656        C671   1.422       .  A
C656        C664   1.386       .  A
C657        C669   1.419       .  A
C657        C665   1.387       .  A
C658        C672   1.412       .  A
C658        C666   1.386       .  A
C659        C667   1.384       .  A
C659        C670   1.413       .  A
C660        C668   1.387       .  A
C660        C671   1.423       .  A
C661        C662   1.376       .  A
C661        H673   1.081       .  S
C662        H674   1.082       .  S
C663        C664   1.378       .  A
C663        H675   1.081       .  S
C664        H676   1.082       .  S
C665        C666   1.373       .  A
C665        H677   1.082       .  S
C666        H678   1.082       .  S
C667        C668   1.374       .  A
C667        H679   1.082       .  S
C668        H680   1.081       .  S
C669       C1594   1.504       .  S
C670       C1618   1.490       .  S
C671        C765   1.512       .  S
C672        C741   1.488       .  S
N683        C688   1.349       .  A
N683        C687   1.356       .  A
N683        H715   1.037       .  S
N684        C691   1.349       .  A
N684        C692   1.345       .  A
N685        C690   1.360       .  A
N685        C689   1.359       .  A
N685        H716   1.039       .  S
N686        C693   1.355       .  A
N686        C694   1.358       .  A
C687        C695   1.387   1_545  A
C687        C703   1.416       .  A
C688        C704   1.412       .  A
C688        C696   1.387   1_545  A
C689        C697   1.386   1_545  A
C689        C706   1.423       .  A
C690        C705   1.430       .  A
C690        C698   1.390   1_545  A
C691        C703   1.409       .  A
C691        C699   1.388       .  A
C692        C706   1.405       .  A
C692        C700   1.386       .  A
C693        C701   1.387       .  A
C693        C704   1.424       .  A
C694        C702   1.384       .  A
C694        C705   1.419       .  A
C695        C696   1.374       .  A
C695        H707   1.082       .  S
C696        H708   1.082       .  S
C697        C698   1.378       .  A
C697        H709   1.083       .  S
C698        H710   1.082       .  S
C699        C700   1.366       .  A
C699        H711   1.080       .  S
C700        H712   1.082       .  S
C701        C702   1.374       .  A
C701        H713   1.082       .  S
C702        H714   1.081       .  S
C703        C754   1.484   1_545  S
C704        C746   1.488       .  S
C705        C750   1.513       .  S
C706        C758   1.485       .  S
C717        C718   1.525       .  S
C717       C1579   1.530   1_455  S
C717       C1577   1.533       .  S
C717        C733   1.522       .  S
C718        H725   1.087       .  S
C718        C719   1.367       .  D
C719       C1576   1.543       .  S
C719        C769   1.480       .  S
C720       C1575   1.532       .  S
C720        C724   1.536       .  S
C720        C722   1.531       .  S
C720        H726   1.112       .  S
C721       C1573   1.552       .  S
C721        H727   1.085       .  S
C721        C722   1.376       .  D
C722        C729   1.495       .  S
C723       C1573   1.535       .  S
C723        H728   1.086       .  S
C723        C724   1.369       .  D
C724        C774   1.473       .  S
C729       H1587   1.086       .  S
C729        C730   1.345       .  D
C730        H732   1.086       .  S
H731       C1585   1.087       .  S
C733       H1591   1.086       .  S
C733        C734   1.346       .  D
C734        H736   1.087   1_455  S
H735       C1589   1.086       .  S
C737        H739   1.086       .  S
C737        C738   1.355   1_455  D
C738       H1596   1.087       .  S
C738       C1525   1.501       .  S
H740       C1594   1.087       .  S
C741        H743   1.086       .  S
C741        C742   1.333       .  D
C742       H1600   1.088       .  S
H744       C1598   1.086       .  S
C745        H747   1.087       .  S
C745        C746   1.337   1_565  D
C749        H751   1.085       .  S
C749        C750   1.363   1_565  D
C753        H755   1.087       .  S
C754        H756   1.087       .  S
C757        H759   1.085       .  S
C757        C758   1.358   1_565  D
C761        H763   1.087       .  S
C761        C762   1.341       .  D
C762       H1620   1.087   1_655  S
C762       C1526   1.498       .  S
H764       C1618   1.086       .  S
C765        H767   1.087       .  S
C765        C766   1.353       .  D
C766       H1624   1.086       .  S
H768       C1622   1.085       .  S
C769        H771   1.086       .  S
C769        C770   1.344       .  D
C770        H772   1.088       .  S
C773        H775   1.086       .  S
C773        C774   1.341       .  D
C774        H776   1.087       .  S
C777        H779   1.087       .  S
C777        C778   1.355       .  D
C778        H780   1.086       .  S
C781        H783   1.088       .  S
C781        C782   1.337       .  D
C782        H784   1.086       .  S
C785        H787   1.088       .  S
C785        C786   1.339       .  D
C786        H788   1.086       .  S
C789        H791   1.083       .  S
C789        C790   1.350       .  D
C790        H792   1.088       .  S
C793        H795   1.087       .  S
C793        C794   1.353   1_455  D
C794       H1652   1.082       .  S
H796       C1650   1.086       .  S
C797       H1655   1.087       .  S
C797        C798   1.352       .  D
C798        H800   1.084       .  S
H799       C1653   1.086       .  S
C801        H803   1.086       .  S
C801        C802   1.343       .  D
C802        H804   1.087       .  S
C805        H807   1.086       .  S
C805        C806   1.353       .  D
C806        H808   1.086       .  S
C809        C810   1.349   1_545  D
C810        H812   1.086       .  S
C813        C814   1.356       .  D
C814        H816   1.086       .  S
C817        H819   1.087       .  S
C817        C818   1.350       .  D
C818        H820   1.086       .  S
C821        H823   1.086       .  S
C821        C822   1.347       .  D
C822        H824   1.086       .  S
C825        H827   1.088       .  S
C825        C826   1.335       .  D
C826        H828   1.087       .  S
C829        H831   1.086       .  S
C829        C830   1.347       .  D
C830        H832   1.088       .  S
C833        H835   1.087       .  S
C833        C834   1.349       .  D
C834        H836   1.086       .  S
C837        H839   1.087       .  S
C837        C838   1.342       .  D
C838        H840   1.087       .  S
C841        H843   1.088       .  S
C841        C842   1.349   1_545  D
C845        H847   1.086       .  S
C845        C846   1.349       .  D
C849        H851   1.087       .  S
C849        C850   1.340       .  D
C850        H852   1.087       .  S
C853        H855   1.086       .  S
C853        C854   1.342       .  D
C854        H856   1.086       .  S
C857        C858   1.533       .  S
C857        C863   1.541       .  S
C857        C861   1.538       .  S
C857       C1277   1.530       .  S
C858       H1293   1.087       .  S
C858       C1287   1.368   1_545  D
C859        C860   1.540       .  S
C859       C1286   1.386       .  D
C859       C1282   1.507       .  S
C860        C864   1.532       .  S
C860        C862   1.534       .  S
C860        H866   1.111       .  S
C861        H867   1.086       .  S
C861       C1290   1.371       .  D
C862       C1289   1.364       .  D
C862       C1273   1.479       .  S
C863        H868   1.086       .  S
C863       C1292   1.373   1_545  D
C864       C1291   1.363       .  D
C864       C1269   1.471       .  S
H865       C1286   1.085       .  S
N869        C874   1.356   1_554  A
N869        C873   1.354       .  A
N869        H901   1.040       .  S
N870        C878   1.356       .  A
N871        C876   1.348       .  A
N871        C875   1.348   1_556  A
N871        H902   1.040       .  S
N872        C880   1.346       .  A
C873        C881   1.389       .  A
C873        C889   1.419       .  A
C874        C890   1.420       .  A
C874        C882   1.387       .  A
C875        C883   1.386       .  A
C875        C892   1.401       .  A
C876        C891   1.407       .  A
C876        C884   1.390       .  A
C877        C889   1.408       .  A
C877        C885   1.386       .  A
C878        C892   1.417       .  A
C878        C886   1.384       .  A
C879        C887   1.384       .  A
C879        C890   1.411       .  A
C880        C888   1.387       .  A
C880        C891   1.406       .  A
C881        C882   1.379   1_554  A
C881        H893   1.083       .  S
C882        H894   1.082       .  S
C883        C884   1.372   1_554  A
C883        H895   1.083       .  S
C884        H896   1.082       .  S
C885        H897   1.082       .  S
C886        H898   1.081       .  S
C887        H899   1.082       .  S
C888        H900   1.082       .  S
C889       C1258   1.482       .  S
C890       C1265   1.497       .  S
C891       C1261   1.470       .  S
C892       C1253   1.489       .  S
C903        C904   1.538       .  S
C903        C909   1.526       .  S
C903        C907   1.534   1_545  S
C903       C1245   1.505       .  S
C904        H911   1.085       .  S
C904       C1333   1.365       .  D
C905        C906   1.567       .  S
C905       C1332   1.368       .  D
C905       C1669   1.496       .  S
C906        C910   1.555       .  S
C906        C908   1.549       .  S
C906        H912   1.110       .  S
C907       H1341   1.086       .  S
C907       C1336   1.370       .  D
C908       C1335   1.368       .  D
C908       C1249   1.492       .  S
C909        H914   1.086       .  S
C909       C1338   1.361       .  D
C910       C1337   1.363       .  D
C910       C1237   1.485       .  S
H913       C1335   1.087       .  S
C915        C916   1.537       .  S
C915        C919   1.534       .  S
C915       C1221   1.539       .  S
C916        H923   1.086       .  S
C917        C918   1.531       .  S
C917       C1225   1.491   1_455  S
C918        C922   1.529   1_455  S
C918        H924   1.108       .  S
C919        H925   1.086       .  S
C919        C920   1.371       .  D
C920       C1229   1.487       .  S
C921        H926   1.085       .  S
C921        C922   1.373       .  D
C922       C1234   1.491       .  S
N927        C932   1.361   1_556  A
N927        C931   1.356       .  A
N927        H959   1.024       .  S
N928        C935   1.348   1_565  A
N928       C1364   1.352       .  A
N929        C934   1.352   1_556  A
N929        C933   1.348       .  A
N929        H960   1.043       .  S
N930        C937   1.357   1_565  A
N930       C1366   1.351       .  A
C931        C939   1.390       .  A
C931        C947   1.424       .  A
C932        C948   1.424       .  A
C932        C940   1.383       .  A
C933        C941   1.387       .  A
C933        C950   1.412       .  A
C934        C949   1.412       .  A
C934        C942   1.388       .  A
C935        C947   1.417       .  A
C935        C943   1.391       .  A
C936       N1356   1.348       .  A
C936        C950   1.404       .  A
C936        C944   1.386       .  A
C937        C945   1.385       .  A
C937        C948   1.417       .  A
C938       N1358   1.344       .  A
C938        C946   1.388       .  A
C938        C949   1.404       .  A
C939        C940   1.379   1_556  A
C939        H951   1.082       .  S
C940        H952   1.082       .  S
C941        C942   1.376   1_556  A
C941        H953   1.082       .  S
C942        H954   1.082       .  S
C943       C1372   1.367   1_545  A
C943        H955   1.081       .  S
C944       C1371   1.372       .  A
C944        H956   1.082       .  S
C945       C1374   1.368   1_545  A
C945        H957   1.080       .  S
C946       C1373   1.370       .  A
C946        H958   1.083       .  S
C947       C1213   1.482       .  S
C948       C1205   1.509       .  S
C949       C1209   1.478       .  S
C950       C1218   1.480       .  S
O961        C969   1.253       .  A
O961       Co981   1.973       .  S
O962        C970   1.276       .  A
O962       Co982   2.028       .  S
O963        C971   1.258       .  A
O963       Co983   1.949       .  S
O964        C972   1.262       .  A
O964       Co984   1.883       .  S
O965        C971   1.279       .  A
O965       Co982   2.055       .  S
O966        C972   1.293       .  A
O966       Co981   2.090       .  S
O967        C970   1.265       .  A
O967       Co984   1.969       .  S
O968        C969   1.258       .  A
O968       Co983   1.977       .  S
C969       C1217   1.456       .  S
C970       C1230   1.480       .  S
C971       C1250   1.500       .  S
C972       C1262   1.445       .  S
O973        C986   1.258       .  A
O973       Co981   1.877       .  S
O974        C987   1.250       .  A
O974       Co982   1.944       .  S
O975        C988   1.276       .  A
O975       Co983   2.027       .  S
O976        C989   1.257       .  A
O976       Co984   1.993       .  S
O977        C989   1.256       .  A
O977       Co982   1.972       .  S
O978        C988   1.267       .  A
O978       Co981   1.968       .  S
O979        C986   1.295       .  A
O979       Co984   2.117       .  S
O980        C987   1.274       .  A
O980       Co983   2.040       .  S
Co981       O985   1.997       .  S
Co982       O985   2.026       .  S
Co983       O985   2.043       .  S
Co984       O985   2.014       .  S
C986       C1214   1.450       .  S
C987       C1233   1.472       .  S
C988       C1266   1.475       .  S
C989       C1246   1.468       .  S
O990        C998   1.294       .  A
O990      Co1010   2.106       .  S
O991        C999   1.278       .  A
O991      Co1011   2.052       .  S
O992       C1000   1.271       .  A
O992      Co1012   1.978       .  S
O993       C1001   1.253       .  A
O993      Co1013   1.969       .  S
O994       C1000   1.264       .  A
O994      Co1011   1.994       .  S
O995       C1001   1.260       .  A
O995      Co1010   2.011       .  S
O996        C999   1.256       .  A
O996      Co1013   1.955       .  S
O997        C998   1.259       .  A
O997      Co1012   1.946       .  S
C998       C1281   1.501       .  S
C999       C1254   1.472       .  S
C1000      C1210   1.461       .  S
C1001      C1198   1.482       .  S
O1002      C1015   1.268       .  A
O1002     Co1010   1.973       .  S
O1003      C1016   1.254       .  A
O1003     Co1011   1.927       .  S
O1004      C1017   1.263       .  A
O1004     Co1012   2.042       .  S
O1005      C1018   1.286       .  A
O1005     Co1013   2.098       .  S
O1006      C1018   1.250       .  A
O1006     Co1011   1.921       .  S
O1007      C1017   1.249       .  A
O1007     Co1010   1.965       .  S
O1008      C1015   1.279       .  A
O1008     Co1013   2.039       .  S
O1009      C1016   1.275       .  A
O1009     Co1012   2.040       .  S
Co1010     O1014   2.076       .  S
Co1011     O1014   1.981       .  S
Co1012     O1014   2.134       .  S
Co1013     O1014   2.103       .  S
C1015      C1278   1.491       .  S
C1016      C1257   1.465       .  S
C1017      C1201   1.494       .  S
C1018      C1206   1.498       .  S
O1020      C1028   1.266       .  A
O1020     Co1040   1.968       .  S
O1021      C1029   1.276       .  A
O1021     Co1041   2.060       .  S
O1022      C1030   1.274       .  A
O1022     Co1042   2.045       .  S
O1023     Co1468   2.015   1_545  S
O1024      C1458   1.280   1_565  A
O1025      C1028   1.273       .  A
O1025     Co1042   2.022       .  S
O1026      C1027   1.275       .  A
O1026     Co1041   2.046       .  S
C1027      C1222   1.503       .  S
C1028      C1185   1.477       .  S
C1029      C1189   1.462       .  S
C1030      C1238   1.491       .  S
C1030      O1452   1.262       .  A
O1031     Co1039   2.043       .  S
O1032      C1473   1.247       .  A
O1033      C1046   1.255       .  A
O1033     Co1041   1.956   1_565  S
O1034      C1047   1.254   1_455  A
O1034     Co1042   1.974   1_455  S
O1036      C1474   1.280       .  A
O1036     Co1039   2.058       .  S
O1037      C1044   1.253   1_455  A
O1037     Co1042   1.940   1_455  S
O1038      C1045   1.261       .  A
O1038     Co1041   1.968   1_565  S
Co1040     O1451   1.876       .  S
Co1040     O1043   1.998       .  S
Co1042     O1043   2.056       .  S
C1044      C1226   1.481       .  S
C1045      C1181   1.467       .  S
C1045      O1460   1.270   1_565  A
C1046      C1242   1.479   1_565  S
C1046      O1464   1.271   1_565  A
C1047      C1194   1.478   1_655  S
O1048      C1056   1.262       .  A
O1048     Co1068   1.970       .  S
O1049     Co1069   1.892       .  S
O1050      C1486   1.266       .  A
O1050     Co1070   2.017   1_565  S
O1051      C1059   1.261       .  A
O1051     Co1071   1.992       .  S
O1052      C1058   1.255       .  A
O1052     Co1069   1.948       .  S
O1053     Co1068   1.995       .  S
O1054      C1057   1.246       .  A
O1054     Co1071   1.970   1_455  S
O1055      C1484   1.262       .  A
O1055     Co1070   1.984   1_565  S
C1056      C1274   1.471       .  S
C1056      O1483   1.269       .  A
C1057      C1170   1.468       .  S
C1058      C1173   1.460       .  S
C1058      O1478   1.279       .  A
C1059      C1158   1.478       .  S
O1060      C1073   1.261       .  A
O1062      C1075   1.264       .  A
O1062     Co1070   2.001       .  S
O1063      C1076   1.272       .  A
O1063     Co1071   1.976       .  S
O1064      C1076   1.275       .  A
O1065      C1075   1.269       .  A
O1065     Co1496   1.996       .  S
O1066      C1073   1.259       .  A
O1066     Co1071   1.993       .  S
O1067      C1074   1.261       .  A
O1067     Co1070   1.991       .  S
Co1068     O1493   2.043       .  S
Co1068     O1072   2.031       .  S
Co1069     O1072   2.008       .  S
Co1070     O1500   2.123       .  S
O1072     Co1498   2.039       .  S
C1073      C1270   1.458       .  S
C1074      C1165   1.463       .  S
C1075      C1162   1.486       .  S
C1076      C1177   1.478       .  S
N1077      C1082   1.358       .  A
N1077      C1081   1.357       .  A
N1077      H1109   1.040       .  S
N1078      C1085   1.350   1_455  A
N1078      C1086   1.352       .  A
N1079      C1084   1.350       .  A
N1079      C1083   1.349       .  A
N1079      H1110   1.039   1_455  S
N1080      C1087   1.353       .  A
N1080      C1088   1.355       .  A
C1081      C1089   1.386   1_655  A
C1081      C1097   1.420       .  A
C1082      C1098   1.425       .  A
C1082      C1090   1.390   1_655  A
C1083      C1091   1.389       .  A
C1083      C1100   1.409       .  A
C1084      C1099   1.406       .  A
C1084      C1092   1.386       .  A
C1085      C1097   1.409       .  A
C1085      C1093   1.384       .  A
C1086      C1100   1.415       .  A
C1086      C1094   1.388   1_455  A
C1087      C1095   1.388       .  A
C1087      C1098   1.422       .  A
C1088      C1096   1.384       .  A
C1088      C1099   1.416   1_655  A
C1089      C1090   1.378       .  A
C1089      H1101   1.083       .  S
C1090      H1102   1.082       .  S
C1091      C1092   1.374       .  A
C1091      H1103   1.083       .  S
C1092      H1104   1.082       .  S
C1093      C1094   1.373       .  A
C1093      H1105   1.082       .  S
C1094      H1106   1.081       .  S
C1095      C1096   1.376       .  A
C1095      H1107   1.082       .  S
C1096      H1108   1.082       .  S
C1099      C1193   1.488   1_455  S
C1100      C1169   1.482       .  S
N1111      C1116   1.353       .  A
N1111      C1115   1.353       .  A
N1111      H1143   1.039       .  S
N1112      C1119   1.349       .  A
N1112      C1120   1.350       .  A
N1113      C1118   1.357       .  A
N1113      C1117   1.357       .  A
N1113      H1144   1.040       .  S
N1114      C1121   1.352       .  A
N1114      C1122   1.352       .  A
C1115      C1123   1.386       .  A
C1115      C1131   1.413       .  A
C1116      C1132   1.416       .  A
C1116      C1124   1.389       .  A
C1117      C1125   1.388       .  A
C1117      C1134   1.421       .  A
C1118      C1133   1.424       .  A
C1118      C1126   1.389       .  A
C1119      C1131   1.416       .  A
C1119      C1127   1.387       .  A
C1120      C1134   1.411       .  A
C1120      C1128   1.386       .  A
C1121      C1129   1.384       .  A
C1121      C1132   1.412       .  A
C1122      C1130   1.390       .  A
C1122      C1133   1.417       .  A
C1123      C1124   1.375       .  A
C1123      H1135   1.082       .  S
C1124      H1136   1.082       .  S
C1125      C1126   1.379       .  A
C1125      H1137   1.082       .  S
C1126      H1138   1.081       .  S
C1127      C1128   1.373       .  A
C1127      H1139   1.082       .  S
C1128      H1140   1.080       .  S
C1129      C1130   1.359       .  A
C1129      H1141   1.080       .  S
C1130      H1142   1.078       .  S
C1131      C1182   1.491       .  S
C1132      C1174   1.486       .  S
C1133      C1178   1.495       .  S
C1134      C1186   1.490       .  S
C1145      C1146   1.543       .  S
C1145      C1161   1.525       .  S
C1146      H1153   1.086       .  S
C1146      C1147   1.370       .  D
C1147      C1197   1.488       .  S
C1148      C1152   1.547       .  S
C1148      C1150   1.539       .  S
C1148      H1154   1.110       .  S
C1149      H1155   1.086       .  S
C1149      C1150   1.375       .  D
C1150      C1157   1.484       .  S
C1151      H1156   1.087       .  S
C1151      C1152   1.368       .  D
C1152      C1202   1.493       .  S
C1157      C1158   1.342       .  D
C1158      H1160   1.087       .  S
C1161      C1162   1.341       .  D
C1162      H1164   1.087       .  S
C1165      H1167   1.087       .  S
C1165      C1166   1.340       .  D
C1169      H1171   1.088   1_455  S
C1169      C1170   1.340       .  D
C1173      H1175   1.088       .  S
C1173      C1174   1.339       .  D
C1174      H1604   1.087       .  S
H1176      C1602   1.087   1_545  S
C1177      H1179   1.086       .  S
C1177      C1178   1.355       .  D
C1178      H1608   1.086       .  S
H1180      C1606   1.086   1_545  S
C1181      H1183   1.085       .  S
C1181      C1610   1.342       .  D
C1182      H1184   1.087       .  S
C1182      C1609   1.342       .  D
C1185      H1187   1.086       .  S
C1185      C1186   1.344       .  D
C1186      H1616   1.087       .  S
H1188      C1614   1.086   1_545  S
C1189      H1191   1.086       .  S
C1189      C1190   1.349       .  D
C1193      H1195   1.087       .  S
C1193      C1194   1.340   1_655  D
C1197      H1199   1.086       .  S
C1197      C1198   1.346       .  D
C1198      H1200   1.087       .  S
C1201      H1203   1.085       .  S
C1201      C1202   1.353       .  D
C1202      H1204   1.087       .  S
C1205      H1207   1.087       .  S
C1205      C1206   1.361       .  D
C1206      H1208   1.085       .  S
C1209      H1211   1.089       .  S
C1209      C1210   1.334       .  D
C1210      H1212   1.086       .  S
C1213      H1215   1.087       .  S
C1213      C1214   1.338       .  D
C1214      H1216   1.087       .  S
C1217      H1219   1.087       .  S
C1217      C1218   1.336       .  D
C1218      H1220   1.087       .  S
C1221      H1223   1.087       .  S
C1221      C1222   1.357       .  D
C1225      C1226   1.358       .  D
C1226      H1228   1.082       .  S
C1229      H1231   1.086       .  S
C1229      C1230   1.348       .  D
C1230      H1232   1.087       .  S
C1233      H1235   1.086       .  S
C1233      C1234   1.336       .  D
C1234      H1236   1.087       .  S
C1237      H1667   1.088       .  S
C1237      C1238   1.348       .  D
C1238      H1240   1.086       .  S
H1239      C1665   1.086       .  S
C1241      H1671   1.086       .  S
C1241      C1242   1.352   1_565  D
C1241      C1333   1.485   1_565  S
C1242      H1244   1.086       .  S
H1243      C1669   1.086       .  S
C1245      H1247   1.088       .  S
C1245      C1246   1.341       .  D
C1246      H1248   1.085       .  S
C1249      H1251   1.087       .  S
C1249      C1250   1.356       .  D
C1250      H1252   1.085       .  S
C1253      H1255   1.088       .  S
C1253      C1254   1.336       .  D
C1254      H1256   1.087       .  S
C1257      H1259   1.086       .  S
C1257      C1258   1.348       .  D
C1258      H1260   1.088       .  S
C1261      H1263   1.089       .  S
C1261      C1262   1.334       .  D
C1262      H1264   1.086       .  S
C1265      H1267   1.087       .  S
C1265      C1266   1.351       .  D
C1266      H1268   1.086       .  S
C1269      H1271   1.087       .  S
C1269      C1270   1.342       .  D
C1270      H1700   1.086       .  S
H1272      C1698   1.087       .  S
C1273      H1275   1.086       .  S
C1273      C1274   1.345       .  D
C1274      H1704   1.087       .  S
H1276      C1702   1.087   1_545  S
C1277      H1279   1.087       .  S
C1277      C1278   1.353       .  D
C1278      H1280   1.086       .  S
C1281      H1283   1.087       .  S
C1281      C1282   1.346       .  D
C1282      H1284   1.086       .  S
C1285      C1286   1.557       .  S
C1285      C1291   1.532       .  S
C1285      C1289   1.529       .  S
C1285      C1705   1.521       .  S
C1287      C1288   1.554       .  S
C1287      C1710   1.495       .  S
C1288      C1292   1.546       .  S
C1288      C1290   1.550   1_565  S
C1288      H1294   1.107       .  S
C1289      H1295   1.087       .  S
C1290      C1701   1.500   1_545  S
C1291      H1296   1.087       .  S
C1292      C1697   1.505       .  S
N1297      C1302   1.356       .  A
N1297      C1301   1.359   1_556  A
N1297      H1329   1.039       .  S
N1298      C1306   1.353       .  A
N1299      C1304   1.356       .  A
N1299      C1303   1.355   1_556  A
N1299      H1330   1.039       .  S
N1300      C1308   1.349       .  A
C1301      C1309   1.387       .  A
C1301      C1317   1.425       .  A
C1302      C1318   1.424       .  A
C1302      C1310   1.388       .  A
C1303      C1311   1.389       .  A
C1303      C1320   1.422       .  A
C1304      C1319   1.420       .  A
C1304      C1312   1.388       .  A
C1305      C1317   1.415       .  A
C1305      C1313   1.385       .  A
C1306      C1320   1.416       .  A
C1306      C1314   1.387       .  A
C1307      C1315   1.389       .  A
C1307      C1318   1.413       .  A
C1308      C1316   1.387       .  A
C1308      C1319   1.410       .  A
C1309      C1310   1.381   1_554  A
C1309      H1321   1.082       .  S
C1310      H1322   1.082       .  S
C1311      C1312   1.378   1_554  A
C1311      H1323   1.082       .  S
C1312      H1324   1.083       .  S
C1313      H1325   1.081       .  S
C1314      H1326   1.081       .  S
C1315      H1327   1.082       .  S
C1316      H1328   1.082       .  S
C1317      C1686   1.505       .  S
C1318      C1693   1.493       .  S
C1319      C1689   1.490       .  S
C1320      C1681   1.496       .  S
C1331      C1332   1.525       .  S
C1331      C1337   1.522       .  S
C1331      C1335   1.533       .  S
C1331      C1673   1.511       .  S
C1332      H1339   1.085       .  S
C1333      C1334   1.540   1_545  S
C1334      C1338   1.546   1_565  S
C1334      C1336   1.538       .  S
C1334      H1340   1.111       .  S
C1336      C1677   1.475       .  S
C1337      H1342   1.087       .  S
C1338      C1665   1.488   1_545  S
C1343      C1344   1.530       .  S
C1343      C1347   1.522       .  S
C1343      C1649   1.513       .  S
C1344      H1351   1.087       .  S
C1345      C1346   1.539       .  S
C1345      C1653   1.497       .  S
C1346      C1350   1.543   1_455  S
C1346      H1352   1.111       .  S
C1347      H1353   1.087       .  S
C1347      C1348   1.361       .  D
C1348      C1657   1.486       .  S
C1349      H1354   1.082       .  S
C1349      C1350   1.369       .  D
C1350      C1662   1.494       .  S
N1355      C1360   1.351   1_556  A
N1355      C1359   1.349       .  A
N1355      H1387   1.041       .  S
N1356      C1363   1.348       .  A
N1357      C1362   1.350   1_556  A
N1357      C1361   1.354       .  A
N1357      H1388   1.026       .  S
N1358      C1365   1.347       .  A
C1359      C1367   1.387       .  A
C1359      C1375   1.405       .  A
C1360      C1376   1.410       .  A
C1360      C1368   1.389       .  A
C1361      C1369   1.385       .  A
C1361      C1378   1.411       .  A
C1362      C1377   1.418       .  A
C1362      C1370   1.392       .  A
C1363      C1375   1.408       .  A
C1363      C1371   1.386       .  A
C1364      C1378   1.409       .  A
C1364      C1372   1.384       .  A
C1365      C1373   1.385       .  A
C1365      C1376   1.401       .  A
C1366      C1374   1.387       .  A
C1366      C1377   1.415       .  A
C1367      C1368   1.371   1_556  A
C1367      H1379   1.083       .  S
C1368      H1380   1.082       .  S
C1369      C1370   1.367   1_556  A
C1369      H1381   1.082       .  S
C1370      H1382   1.079       .  S
C1371      H1383   1.082       .  S
C1372      H1384   1.082       .  S
C1373      H1385   1.081       .  S
C1374      H1386   1.082       .  S
C1375      C1641   1.474       .  S
C1376      C1633   1.470       .  S
C1377      C1637   1.473       .  S
C1378      C1646   1.485       .  S
O1389      C1397   1.263       .  A
O1389     Co1409   1.880       .  S
O1390      C1398   1.265       .  A
O1390     Co1410   1.981       .  S
O1391      C1399   1.259       .  A
O1391     Co1411   1.986       .  S
O1392      C1400   1.279       .  A
O1392     Co1412   2.044       .  S
O1393      C1399   1.262       .  A
O1393     Co1410   1.983       .  S
O1394      C1400   1.261       .  A
O1394     Co1409   1.961       .  S
O1395      C1398   1.271       .  A
O1395     Co1412   2.004       .  S
O1396      C1397   1.294       .  A
O1396     Co1411   2.113       .  S
C1397      C1645   1.456       .  S
C1398      C1658   1.471       .  S
C1399      C1678   1.469       .  S
C1400      C1690   1.467       .  S
O1401      C1414   1.261       .  A
O1401     Co1409   1.998       .  S
O1402      C1415   1.280       .  A
O1402     Co1410   2.024       .  S
O1403      C1416   1.267       .  A
O1403     Co1411   1.910       .  S
O1404      C1417   1.257       .  A
O1404     Co1412   1.949       .  S
O1405      C1417   1.275       .  A
O1405     Co1410   2.040       .  S
O1406      C1416   1.288       .  A
O1406     Co1409   2.076       .  S
O1407      C1414   1.251       .  A
O1407     Co1412   1.968       .  S
O1408      C1415   1.275       .  A
O1408     Co1411   1.978       .  S
Co1409     O1413   1.994       .  S
Co1410     O1413   2.032       .  S
Co1411     O1413   2.008       .  S
Co1412     O1413   2.023       .  S
C1414      C1642   1.461       .  S
C1415      C1661   1.478       .  S
C1416      C1694   1.472       .  S
C1417      C1674   1.480       .  S
O1418      C1426   1.262       .  A
O1418     Co1438   2.007       .  S
O1419      C1427   1.262       .  A
O1419     Co1439   2.008       .  S
O1420      C1428   1.260       .  A
O1420     Co1440   1.965       .  S
O1421      C1429   1.259       .  A
O1421     Co1441   1.979       .  S
O1422      C1428   1.262       .  A
O1422     Co1439   1.980       .  S
O1423      C1429   1.264       .  A
O1423     Co1438   1.987       .  S
O1424      C1427   1.258       .  A
O1424     Co1441   1.988       .  S
O1425      C1426   1.258       .  A
O1425     Co1440   1.978       .  S
C1426      C1709   1.487       .  S
C1427      C1682   1.477       .  S
C1428      C1638   1.444       .  S
C1429      C1626   1.460       .  S
O1430      C1443   1.260       .  A
O1430     Co1438   1.990       .  S
O1431      C1444   1.260       .  A
O1431     Co1439   1.936       .  S
O1432      C1445   1.275       .  A
O1432     Co1440   2.024       .  S
O1433      C1446   1.265       .  A
O1433     Co1441   1.945       .  S
O1434      C1446   1.284       .  A
O1434     Co1439   2.030       .  S
O1435      C1445   1.261       .  A
O1435     Co1438   1.946       .  S
O1436      C1443   1.257       .  A
O1436     Co1441   2.017       .  S
O1437      C1444   1.279       .  A
O1437     Co1440   2.053       .  S
Co1438     O1442   2.066       .  S
Co1439     O1442   2.085       .  S
Co1440     O1442   2.086       .  S
Co1441     O1442   1.973       .  S
C1443      C1706   1.496       .  S
C1444      C1685   1.485       .  S
C1445      C1629   1.466       .  S
C1446      C1634   1.466       .  S
O1448      C1456   1.293       .  A
O1448     Co1468   2.095       .  S
O1449      C1457   1.283       .  A
O1449     Co1469   2.042       .  S
O1450      C1458   1.272       .  A
O1450     Co1470   1.967   1_545  S
O1453      C1456   1.260       .  A
O1453     Co1470   1.898       .  S
O1454      C1455   1.270       .  A
O1454     Co1469   2.025       .  S
C1455      C1650   1.474       .  S
C1456      C1613   1.471       .  S
C1457      C1617   1.476       .  S
C1458      C1666   1.469       .  S
O1459     Co1467   2.055   1_565  S
O1461      C1474   1.252       .  A
O1461     Co1469   1.948       .  S
O1462      C1475   1.294       .  A
O1462     Co1470   2.106       .  S
O1464     Co1467   2.033       .  S
O1465      C1472   1.255       .  A
O1465     Co1470   1.982       .  S
O1466      C1473   1.248       .  A
O1466     Co1469   1.977       .  S
Co1468     O1471   2.031   1_665  S
Co1470     O1471   2.012   1_665  S
C1472      C1654   1.488       .  S
C1473      C1609   1.462       .  S
C1474      C1670   1.488       .  S
C1475      C1622   1.476   1_655  S
O1476      C1484   1.271   1_545  A
O1476     Co1496   2.029       .  S
O1477     Co1497   2.040       .  S
O1478     Co1498   2.039       .  S
O1479      C1487   1.240       .  A
O1479     Co1499   1.930   1_455  S
O1480      C1486   1.236       .  A
O1480     Co1497   1.913       .  S
O1481     Co1496   2.058   1_565  S
O1482      C1485   1.231       .  A
O1482     Co1499   1.955   1_455  S
O1483     Co1498   2.010       .  S
C1484      C1702   1.495       .  S
C1485      C1598   1.476       .  S
C1486      C1601   1.455       .  S
C1487      C1586   1.492       .  S
O1488      C1501   1.247   1_545  A
O1490      C1503   1.261       .  A
O1490     Co1498   1.963       .  S
O1491      C1504   1.315       .  A
O1491     Co1499   2.149       .  S
O1492      C1504   1.278   1_545  A
O1493      C1503   1.278       .  A
O1494      C1501   1.273       .  A
O1494     Co1499   2.068       .  S
O1495      C1502   1.253       .  A
O1495     Co1498   1.962       .  S
Co1496     O1500   2.057       .  S
Co1497     O1500   2.034   1_565  S
C1501      C1698   1.489   1_565  S
C1502      C1593   1.472       .  S
C1503      C1590   1.489       .  S
C1504      C1605   1.470       .  S
N1505      C1510   1.360       .  A
N1505      C1509   1.358   1_655  A
N1505      H1537   1.041       .  S
N1506      C1513   1.350   1_455  A
N1506      C1514   1.354       .  A
N1507      C1512   1.349       .  A
N1507      C1511   1.351       .  A
N1507      H1538   1.041   1_455  S
N1508      C1515   1.348   1_455  A
N1508      C1516   1.352   1_455  A
C1509      C1517   1.388       .  A
C1509      C1525   1.425   1_455  A
C1510      C1526   1.429       .  A
C1510      C1518   1.389   1_655  A
C1511      C1519   1.385       .  A
C1511      C1528   1.405       .  A
C1512      C1527   1.408       .  A
C1512      C1520   1.385       .  A
C1513      C1525   1.414       .  A
C1513      C1521   1.387       .  A
C1514      C1528   1.414       .  A
C1514      C1522   1.385   1_455  A
C1515      C1523   1.386       .  A
C1515      C1526   1.409       .  A
C1516      C1524   1.387       .  A
C1516      C1527   1.413   1_655  A
C1517      C1518   1.381       .  A
C1517      H1529   1.083       .  S
C1518      H1530   1.082       .  S
C1519      C1520   1.373       .  A
C1519      H1531   1.082       .  S
C1520      H1532   1.079       .  S
C1521      C1522   1.373       .  A
C1521      H1533   1.082       .  S
C1522      H1534   1.081       .  S
C1523      C1524   1.377       .  A
C1523      H1535   1.083       .  S
C1524      H1536   1.081       .  S
C1527      C1621   1.488       .  S
C1528      C1597   1.490       .  S
N1539      C1544   1.351       .  A
N1539      C1543   1.353       .  A
N1539      H1571   1.041       .  S
N1540      C1547   1.354       .  A
N1540      C1548   1.353       .  A
N1541      C1546   1.357       .  A
N1541      C1545   1.355       .  A
N1541      H1572   1.040       .  S
N1542      C1549   1.345       .  A
N1542      C1550   1.350       .  A
C1543      C1551   1.388       .  A
C1543      C1559   1.412       .  A
C1544      C1560   1.411       .  A
C1544      C1552   1.388       .  A
C1545      C1553   1.388   1_565  A
C1545      C1562   1.419       .  A
C1546      C1561   1.421       .  A
C1546      C1554   1.388   1_565  A
C1547      C1559   1.418       .  A
C1547      C1555   1.383       .  A
C1548      C1562   1.421       .  A
C1548      C1556   1.390       .  A
C1549      C1557   1.384       .  A
C1549      C1560   1.399       .  A
C1550      C1558   1.390       .  A
C1550      C1561   1.412       .  A
C1551      C1552   1.374       .  A
C1551      H1563   1.082       .  S
C1552      H1564   1.083       .  S
C1553      C1554   1.375       .  A
C1553      H1565   1.081       .  S
C1554      H1566   1.081       .  S
C1555      C1556   1.371       .  A
C1555      H1567   1.082       .  S
C1556      H1568   1.078       .  S
C1557      C1558   1.364       .  A
C1557      H1569   1.083       .  S
C1558      H1570   1.079       .  S
C1559      C1610   1.499       .  S
C1560      C1602   1.466       .  S
C1561      C1606   1.488       .  S
C1562      C1614   1.494       .  S
C1573      C1574   1.528       .  S
C1573      C1589   1.523       .  S
C1574      H1581   1.086       .  S
C1574      C1575   1.366       .  D
C1575      C1625   1.471       .  S
C1576      C1580   1.540   1_455  S
C1576      C1578   1.540       .  S
C1576      H1582   1.110       .  S
C1577      H1583   1.086       .  S
C1577      C1578   1.372       .  D
C1578      C1585   1.483       .  S
C1579      H1584   1.084       .  S
C1579      C1580   1.373       .  D
C1580      C1630   1.486       .  S
C1585      C1586   1.359       .  D
C1586      H1588   1.085   1_455  S
C1589      C1590   1.356       .  D
C1590      H1592   1.086       .  S
C1593      H1595   1.086       .  S
C1593      C1594   1.344       .  D
C1597      H1599   1.088       .  S
C1597      C1598   1.342       .  D
C1601      H1603   1.088       .  S
C1601      C1602   1.329       .  D
C1605      H1607   1.086       .  S
C1605      C1606   1.345       .  D
C1609      H1611   1.085       .  S
C1610      H1612   1.087       .  S
C1613      H1615   1.086       .  S
C1613      C1614   1.339       .  D
C1617      H1619   1.088       .  S
C1617      C1618   1.342       .  D
C1621      H1623   1.088   1_455  S
C1621      C1622   1.342       .  D
C1625      H1627   1.086       .  S
C1625      C1626   1.335       .  D
C1626      H1628   1.088       .  S
C1629      H1631   1.084       .  S
C1629      C1630   1.342       .  D
C1630      H1632   1.086       .  S
C1633      H1635   1.087       .  S
C1633      C1634   1.338       .  D
C1634      H1636   1.086       .  S
C1637      H1639   1.087       .  S
C1637      C1638   1.330       .  D
C1638      H1640   1.087       .  S
C1641      H1643   1.084       .  S
C1641      C1642   1.339       .  D
C1642      H1644   1.087       .  S
C1645      H1647   1.085       .  S
C1645      C1646   1.338       .  D
C1646      H1648   1.089       .  S
C1649      H1651   1.089       .  S
C1649      C1650   1.336       .  D
C1653      C1654   1.344   1_455  D
C1654      H1656   1.087       .  S
C1657      H1659   1.086       .  S
C1657      C1658   1.346       .  D
C1658      H1660   1.088       .  S
C1661      H1663   1.085       .  S
C1661      C1662   1.348       .  D
C1662      H1664   1.086       .  S
C1665      C1666   1.350   1_565  D
C1666      H1668   1.086       .  S
C1669      C1670   1.363       .  D
C1670      H1672   1.085       .  S
C1673      H1675   1.087       .  S
C1673      C1674   1.351       .  D
C1674      H1676   1.086       .  S
C1677      H1679   1.087       .  S
C1677      C1678   1.339       .  D
C1678      H1680   1.087       .  S
C1681      H1683   1.087       .  S
C1681      C1682   1.352       .  D
C1682      H1684   1.085       .  S
C1685      H1687   1.086       .  S
C1685      C1686   1.357       .  D
C1686      H1688   1.087       .  S
C1689      H1691   1.083       .  S
C1689      C1690   1.346       .  D
C1690      H1692   1.086       .  S
C1693      H1695   1.087       .  S
C1693      C1694   1.352       .  D
C1694      H1696   1.086       .  S
C1697      H1699   1.086       .  S
C1697      C1698   1.348   1_565  D
C1701      H1703   1.085       .  S
C1701      C1702   1.353       .  D
C1705      H1707   1.088       .  S
C1705      C1706   1.349       .  D
C1706      H1708   1.085       .  S
C1709      H1711   1.083       .  S
C1709      C1710   1.347       .  D
C1710      H1712   1.087       .  S
