geometry optimzed in LAMMPS
_audit_creation_date              2020-12-01 
_audit_creation_method            'lammps2cif' 
_symmetry_space_group_name_H-M    'P1' 
_symmetry_Int_Tables_number       1 
_symmetry_cell_setting            triclinic 
loop_ 
_symmetry_equiv_pos_as_xyz 
  x,y,z 
_cell_length_a                    30.33959265 
_cell_length_b                    30.15880654284235 
_cell_length_c                    46.30418270244476 
_cell_angle_alpha                 90.82805459217116 
_cell_angle_beta                  90.4330600120363 
_cell_angle_gamma                 88.18937659035805 
loop_ 
_atom_site_label 
_atom_site_type_symbol 
_atom_site_fract_x 
_atom_site_fract_y 
_atom_site_fract_z 
_atom_site_charge 
C1          C  0.25062179  0.50734036  0.24914268    -0.00500
C2          C  0.46143903  0.27359197  0.02010580     0.04300
C3          C  0.45978789  0.27425665  0.98981187     0.04300
C4          C  0.99711856  0.27147386  0.97277732    -0.16200
C5          C  0.03667751  0.26571910  0.98832134     0.04300
C6          C  0.03563047  0.26304368  0.01864964     0.04300
C7          C  0.99463455  0.26497376  0.03249745    -0.16200
H8          H  0.99341279  0.26176149  0.05576529     0.06300
H9          H  0.99820249  0.27432439  0.94948178     0.06300
C10         C  0.24429095  0.99838269  0.75565889    -0.00500
C11         C  0.99921896  0.26282822  0.75109529    -0.00500
C12         C  0.27701456  0.45378998  0.99081085     0.04300
C13         C  0.27631014  0.45823145  0.02110845     0.04300
C14         C  0.27638371  0.50106705  0.03328435    -0.16200
C15         C  0.26899405  0.03798727  0.01518544     0.04300
C16         C  0.27579128  0.03601222  0.98514466     0.04300
C17         C  0.28092581  0.49138624  0.97359825    -0.16200
H18         H  0.28310963  0.48691808  0.95037732     0.06300
H19         H  0.27552996  0.50518076  0.05657661     0.06300
C20         C  0.37265886  0.25265399  0.93231622     0.44500
N21         N  0.33563424  0.23589123  0.89452498     0.03400
C22         C  0.19332820  0.36969717  0.81371613    -0.04500
H23         H  0.15946767  0.36001691  0.92672030     0.08900
C24         C  0.13509689  0.19818753  0.91157459    -0.04900
Co25       Co  0.29343677  0.31416031  0.86547725     0.74200
N26         N  0.21064360  0.33712064  0.89725892    -0.24000
Co27       Co  0.17991728  0.30269184  0.86351228     0.74100
C28         C  0.11706075  0.23485555  0.92888484     0.44600
N29         N  0.23303946  0.15614932  0.88866634     0.03000
N30         N  0.15158758  0.26091673  0.89308693     0.03100
N31         N  0.26726079  0.37765916  0.81584601    -0.44900
H32         H  0.35626567  0.32737544  0.92704764     0.08900
N33         N  0.25384119  0.34078522  0.89779812     0.03400
N34         N  0.15023717  0.26630831  0.82988876     0.03100
C35         C  0.10870721  0.24642195  0.79466379     0.44700
N36         N  0.27597658  0.16109666  0.89068574    -0.23500
C37         C  0.35730267  0.30286768  0.81304873    -0.04400
N38         N  0.36096252  0.21878168  0.91508555    -0.44600
N39         N  0.12104180  0.28171545  0.81074435    -0.44800
C40         C  0.37994580  0.26525542  0.79894186     0.44500
N41         N  0.25415768  0.34817353  0.83477322     0.03400
N42         N  0.27944929  0.16391473  0.82807300    -0.23500
N43         N  0.33070790  0.27937531  0.89652745    -0.24000
N44         N  0.23645890  0.15851163  0.82636942     0.03000
H45         H  0.33519763  0.13051533  0.80793971     0.08900
H46         H  0.13009661  0.17297700  0.79905688     0.08900
N47         N  0.21098819  0.34330564  0.83411654    -0.24100
N48         N  0.15654762  0.21747328  0.89017254    -0.23700
N49         N  0.33873075  0.24096561  0.83195243     0.03400
C50         C  0.23244377  0.37287514  0.93689194     0.44800
C51         C  0.29144969  0.13729678  0.91308627    -0.04900
N52         N  0.15722205  0.22290288  0.82739061    -0.23700
H53         H  0.13326766  0.16288079  0.91497953     0.08900
N54         N  0.26818020  0.36203157  0.92098285    -0.44900
H55         H  0.32557719  0.13384581  0.91982615     0.08900
C56         C  0.26480578  0.11108116  0.79633159     0.44600
C57         C  0.35310633  0.29326662  0.91999952    -0.04400
Co58       Co  0.30809635  0.20015807  0.86117535     0.73800
N59         N  0.21781394  0.12939581  0.90826735    -0.44600
C60         C  0.23056675  0.39245609  0.80171419     0.44900
N61         N  0.36696495  0.22797896  0.81162500    -0.44600
Co62       Co  0.19521259  0.18821100  0.85773364     0.73900
C63         C  0.13273886  0.20745390  0.80542359    -0.04900
C64         C  0.19395772  0.35729618  0.92103792    -0.04500
N65         N  0.33273862  0.28453892  0.83338583    -0.24000
N66         N  0.12782323  0.27285841  0.91597778    -0.44800
H67         H  0.15858053  0.37370373  0.80871649     0.08900
C68         C  0.29991968  0.13613051  0.80943772    -0.04900
Cl69       Cl  0.24414080  0.25136767  0.86159275    -0.47900
C70         C  0.25246089  0.11692714  0.92473209     0.44600
H71         H  0.36012501  0.33800234  0.80939910     0.08800
N72         N  0.22625775  0.12622082  0.80794381    -0.44600
C73         C  0.25829347  0.38565919  0.21721483     0.44500
N74         N  0.27501750  0.33797537  0.18355991     0.03400
C75         C  0.13090860  0.22544336  0.09360219    -0.04500
H76         H  0.11299803  0.18269762  0.19955931     0.08900
C77         C  0.28690867  0.12044673  0.18999651    -0.04900
Co78       Co  0.19334794  0.30894252  0.15235282     0.74200
N79         N  0.15606286  0.22924254  0.17981417    -0.24000
Co80       Co  0.18972039  0.19413149  0.14623660     0.74100
C81         C  0.24879741  0.10094668  0.20297085     0.44600
N82         N  0.34355449  0.21810970  0.17509011     0.03000
N83         N  0.22691723  0.15394982  0.17513336     0.03100
N84         N  0.13288684  0.29977958  0.10009000    -0.44900
H85         H  0.18410281  0.37908556  0.20880480     0.08900
N86         N  0.15903396  0.27279532  0.18260959     0.03400
N87         N  0.22285726  0.16146090  0.11210991     0.03900
C88         C  0.23858399  0.12390770  0.07357732     0.44700
N89         N  0.34526816  0.26176510  0.17790061    -0.23500
C90         C  0.21114577  0.36965022  0.10061422    -0.04400
N91         N  0.29244649  0.36575089  0.20278249    -0.44600
N92         N  0.20494736  0.13874025  0.09050524    -0.44800
C93         C  0.24948337  0.38310702  0.08477495     0.44500
N94         N  0.15685152  0.27863737  0.11982891     0.03400
N95         N  0.33849079  0.26937830  0.11509057    -0.23500
N96         N  0.23138697  0.33958142  0.18415983    -0.24000
N97         N  0.33740765  0.22581741  0.11267165     0.03000
H98         H  0.37030694  0.31899734  0.09013685     0.08900
H99         H  0.31305643  0.13075640  0.08108826     0.08900
N100        N  0.15587686  0.23509568  0.11687035    -0.24100
N101        N  0.27046521  0.15262046  0.17315163    -0.23700
N102        N  0.27072578  0.34151841  0.11985039     0.03400
C103        C  0.10872022  0.25673924  0.21291663     0.44800
C104        C  0.37816099  0.27082395  0.19669371    -0.04900
N105        N  0.26627616  0.16099013  0.11079289    -0.23700
H106        H  0.32121682  0.10969146  0.19118118     0.08900
N107        N  0.13149773  0.29030589  0.20208188    -0.44900
H108        H  0.39005182  0.30352379  0.20157760     0.08900
C109        C  0.37674789  0.24513681  0.07698704     0.44600
C110        C  0.21793534  0.36861753  0.20472650    -0.04400
Co111      Co  0.30798675  0.30338343  0.14945571     0.73800
N112        N  0.37446792  0.19665134  0.19031431    -0.44600
C113        C  0.11632213  0.26863781  0.08238818     0.44900
N114        N  0.28553205  0.36510623  0.09810586    -0.44600
Co115      Co  0.30465385  0.18901643  0.14303467     0.73900
C116        C  0.27925378  0.13821673  0.08715535    -0.04900
C117        C  0.12485051  0.21601329  0.19812662    -0.04500
N118        N  0.22732000  0.34348011  0.12152795    -0.24000
N119        N  0.21242736  0.12278862  0.19249532    -0.44800
H120        H  0.12322170  0.19252011  0.08592548     0.08900
C121        C  0.36247694  0.28470292  0.09335860    -0.04900
Cl122      Cl  0.24897747  0.24881465  0.14827110    -0.47900
C123        C  0.39743209  0.22730362  0.20499326     0.44600
H124        H  0.17670093  0.37789683  0.09677727     0.08800
N125        N  0.36061956  0.20986749  0.09051007    -0.44600
C126        C  0.50432818  0.35977021  0.70179950     0.44500
N127        N  0.48326710  0.41213391  0.67341381     0.03400
C128        C  0.10465600  0.04889637  0.59470363    -0.04500
H129        H  0.11261140  0.09595238  0.70146040     0.08900
C130        C  0.45945748  0.13532070  0.69590515    -0.04900
Co131      Co  0.06873388  0.44543916  0.64401750     0.74200
N132        N  0.08131146  0.04079817  0.68039613    -0.24000
Co133      Co  0.04313188  0.06894698  0.64711023     0.74100
C134        C  0.50074095  0.15078777  0.70910441     0.44600
N135        N  0.39706442  0.03459365  0.67604321     0.03000
N136        N  0.00080578  0.10456446  0.67557962     0.03100
N137        N  0.12733193  0.45086025  0.59196998    -0.44900
H138        H  0.07081801  0.37054614  0.69842140     0.08900
N139        N  0.10361486  0.48465855  0.67450748     0.03400
N140        N  0.00652024  0.09426283  0.61311474     0.03100
C141        C  0.98923034  0.12743151  0.57398254     0.44700
N142        N  0.41481474  0.48865063  0.67416590    -0.23500
C143        C  0.05026006  0.38154756  0.59184673    -0.04400
N144        N  0.46826863  0.38199973  0.69126325    -0.44600
N145        N  0.02272152  0.11776966  0.59212532    -0.44800
C146        C  0.01149183  0.36950699  0.57513812     0.44500
N147        N  0.10508637  0.47347654  0.61199719     0.03400
N148        N  0.41420742  0.48677213  0.61148797    -0.23500
N149        N  0.02844026  0.41615890  0.67462439    -0.24000
N150        N  0.40411035  0.02989202  0.61299000     0.03000
H151        H  0.38369677  0.43868255  0.58341132     0.08900
H152        H  0.43206988  0.12986815  0.58508850     0.08900
N153        N  0.08265412  0.03398712  0.61747521    -0.24100
N154        N  0.47189429  0.10168172  0.67780779    -0.23700
N155        N  0.47831282  0.41341744  0.61059457     0.03400
C156        C  0.13435360  0.02429507  0.71218320     0.44800
C157        C  0.38323702  0.47565190  0.69198488    -0.04900
N158        N  0.47588091  0.09528059  0.61484398    -0.23700
H159        H  0.42632614  0.14928827  0.69790509     0.08900
N160        N  0.13293541  0.47175898  0.69458807    -0.44900
H161        H  0.37277178  0.44190215  0.69405187     0.08900
C162        C  0.36567114  0.00943682  0.57618426     0.44600
C163        C  0.03815044  0.38433365  0.69402036    -0.04400
Co164      Co  0.44718143  0.44977166  0.64293735     0.73800
N165        N  0.36501190  0.05352662  0.69177832    -0.44600
C166        C  0.12564866  0.00938975  0.58180208     0.44900
N167        N  0.45790159  0.39272297  0.58931758    -0.44600
Co168      Co  0.43641374  0.06613529  0.64557395     0.73900
C169        C  0.46515201  0.12026961  0.59188279    -0.04900
C170        C  0.10834541  0.06058033  0.69932794    -0.04500
N171        N  0.03478467  0.40982006  0.61226962    -0.24000
N172        N  0.01121939  0.13815020  0.69303299    -0.44800
H173        H  0.10629704  0.08312856  0.58827699     0.08900
C174        C  0.39090870  0.47271474  0.58866853    -0.04900
Cl175      Cl  0.49158119  0.00429233  0.64905445    -0.47900
C176        C  0.34355462  0.02035676  0.70447047     0.44600
H177        H  0.08438719  0.37128250  0.58880576     0.08800
N178        N  0.38113001  0.04534568  0.59050938    -0.44600
C179        C  0.12366455  0.99431512  0.29878761     0.44500
N180        N  0.07674046  0.01135768  0.33185566     0.03400
C181        C  0.47508640  0.38569392  0.40815903    -0.04500
H182        H  0.42885348  0.36949066  0.30181603     0.08900
C183        C  0.36298091  0.01943653  0.30912954    -0.04900
Co184      Co  0.06283548  0.43758709  0.35821264     0.74200
N185        N  0.48003650  0.40702420  0.32254877    -0.24000
Co186      Co  0.44850619  0.44478565  0.35531614     0.74100
C187        C  0.34347521  0.97890213  0.29772948     0.44600
N188        N  0.46391369  0.07688583  0.32942843     0.03000
N189        N  0.41170423  0.48054953  0.32479409     0.03100
N190        N  0.04742598  0.38658216  0.41418789    -0.44900
H191        H  0.12794467  0.40954662  0.30195104     0.08900
N192        N  0.02322570  0.40008891  0.33045017     0.03400
N193        N  0.41883926  0.48350706  0.38819470     0.03100
C194        C  0.35535103  0.98269791  0.42632046     0.44700
N195        N  0.00196313  0.08031029  0.32956699    -0.23500
C196        C  0.12459267  0.46511547  0.40915602    -0.04400
N197        N  0.10242009  0.02873121  0.31218480    -0.44600
N198        N  0.39751894  0.46938981  0.41102695    -0.44800
C199        C  0.11122707  0.99416958  0.43220123     0.44500
N200        N  0.03016128  0.41130800  0.39325050     0.03400
N201        N  0.99723839  0.07945652  0.39220352    -0.23500
N202        N  0.09499562  0.46516801  0.32337865    -0.24000
N203        N  0.45967576  0.07631038  0.39238840     0.03000
H204        H  0.04019056  0.11609684  0.42057591     0.08900
H205        H  0.36467434  0.05648127  0.41759923     0.08900
N206        N  0.48668630  0.40978180  0.38543000    -0.24100
N207        N  0.39526945  0.00536227  0.32715863    -0.23700
N208        N  0.07127570  0.01217798  0.39539004     0.03400
C209        C  0.50154290  0.35725746  0.28935017     0.44800
C210        C  0.01533548  0.11236961  0.31207028    -0.04900
N211        N  0.39452605  0.00618597  0.38985790    -0.23700
H212        H  0.35081488  0.05339878  0.30741918     0.08900
N213        N  0.03654245  0.37023932  0.31071605    -0.44900
H214        H  0.04853135  0.12427922  0.31118099     0.08900
C215        C  0.96468591  0.12314728  0.42517584     0.44600
C216        C  0.12080115  0.44484415  0.30350511    -0.04400
Co217      Co  0.03755092  0.04632070  0.36218854     0.73800
N218        N  0.44702504  0.10545617  0.31049494    -0.44600
C219        C  0.01358758  0.37608670  0.43137155     0.44900
N220        N  0.09405759  0.02916274  0.41734586    -0.44600
Co221      Co  0.42795936  0.04162191  0.35938107     0.73900
C222        C  0.37086809  0.02187287  0.41221754    -0.04900
C223        C  0.46323216  0.37762580  0.30374822    -0.04500
N224        N  0.10013038  0.47661161  0.38607193    -0.24000
N225        N  0.38448322  0.46288074  0.30566845    -0.44800
H226        H  0.44174432  0.38062680  0.41520745     0.08900
C227        C  0.00733891  0.10680156  0.41424495    -0.04900
Cl228      Cl  0.48661176  0.98424534  0.36104381    -0.47900
C229        C  0.48090078  0.12714020  0.29906246     0.44600
H230        H  0.12966604  0.43188681  0.41723145     0.08800
N231        N  0.44028358  0.10183170  0.41236363    -0.44600
C232        C  0.97087066  0.29150452  0.51635831     0.04300
C233        C  0.97784860  0.29216584  0.48637906     0.04300
C234        C  0.97922632  0.25194560  0.47063375    -0.16200
C235        C  0.97479100  0.21119285  0.48446318     0.04300
C236        C  0.96761279  0.21082303  0.51443200     0.04300
C237        C  0.96510103  0.25106425  0.52993651    -0.16200
H238        H  0.95997664  0.25083025  0.55310002     0.06300
H239        H  0.98478353  0.25225943  0.44753496     0.06300
C240        C  0.30204944  0.47679711  0.48259720     0.04300
C241        C  0.30180266  0.48171915  0.51276013     0.04300
C242        C  0.26154493  0.48684438  0.52706675    -0.16200
C243        C  0.22156583  0.48852263  0.51183513     0.04300
C244        C  0.22182867  0.48517103  0.48157985     0.04300
C245        C  0.26206846  0.47860422  0.46729764    -0.16200
H246        H  0.26238994  0.47517337  0.44393538     0.06300
H247        H  0.26138029  0.49045187  0.55042042     0.06300
C248        C  0.99916469  0.23943348  0.25640630    -0.00500
C249        C  0.50640306  0.27716212  0.27709490    -0.14400
C250        C  0.50190420  0.31977459  0.26856828    -0.29600
H251        H  0.51126368  0.27089207  0.30000646     0.14600
H252        H  0.99080037  0.33157526  0.25331917     0.15200
C253        C  0.50650901  0.19488123  0.27408363    -0.14400
C254        C  0.47439640  0.16621744  0.27976083    -0.29600
H255        H  0.03548413  0.17921862  0.27376770     0.14600
H256        H  0.44133111  0.17246836  0.27140696     0.15200
C257        C  0.95604028  0.16137589  0.44445337    -0.14400
C258        C  0.98142105  0.16973282  0.46749821    -0.29600
H259        H  0.43896805  0.17829016  0.44553642     0.14600
H260        H  0.00753875  0.14624663  0.47385251     0.15200
C261        C  0.01536705  0.33978164  0.45221387    -0.14400
C262        C  0.98246126  0.33426887  0.47093489    -0.29600
H263        H  0.04226942  0.31526342  0.45065139     0.14600
H264        H  0.47590496  0.35492284  0.46953383     0.15200
C265        C  0.18101067  0.48590308  0.46422103    -0.14400
C266        C  0.17717357  0.51234357  0.44132827    -0.29600
H267        H  0.13087522  0.05523339  0.47468006     0.14600
H268        H  0.20131475  0.53754044  0.43774812     0.15200
C269        C  0.34300049  0.47509739  0.46584966    -0.14400
C270        C  0.34997671  0.50830571  0.44786691    -0.29600
H271        H  0.36516826  0.44618105  0.46679954     0.14600
H272        H  0.29894830  0.95607099  0.44960304     0.15200
C273        C  0.17366624  0.46938828  0.55086776    -0.14400
C274        C  0.18089467  0.49577321  0.52856540    -0.29600
H275        H  0.19376942  0.43923871  0.55358109     0.14600
H276        H  0.13334719  0.05972940  0.53351726     0.15200
C277        C  0.34237838  0.48310965  0.53025376    -0.14400
C278        C  0.34784747  0.51681725  0.54899950    -0.29600
H279        H  0.34985971  0.05371537  0.52549718     0.14600
H280        H  0.32652231  0.54642482  0.54791004     0.15200
C281        C  0.99250737  0.16291741  0.55302682    -0.14400
C282        C  0.96482242  0.16930058  0.53077440    -0.29600
H283        H  0.01897746  0.18590778  0.55657690     0.14600
H284        H  0.46787183  0.14753941  0.52878315     0.15200
C285        C  0.00966269  0.33585479  0.55198636    -0.14400
C286        C  0.97413908  0.33143167  0.53487638    -0.29600
H287        H  0.44889980  0.32808020  0.54936261     0.14600
H288        H  0.94619977  0.35479194  0.53620641     0.15200
C289        C  0.07209789  0.26339922  0.23390840    -0.14400
C290        C  0.03628840  0.23785465  0.23382322    -0.29600
H291        H  0.07484963  0.29062999  0.24926241     0.14600
H292        H  0.03447446  0.21198078  0.21729301     0.15200
C293        C  0.44007341  0.21687396  0.22019022    -0.14400
C294        C  0.45671717  0.24409459  0.24053750    -0.29600
H295        H  0.45758294  0.18589201  0.21490113     0.14600
H296        H  0.43656937  0.27345304  0.24599784     0.15200
C297        C  0.26716697  0.08031177  0.03189536    -0.14400
C298        C  0.23496298  0.08897802  0.05121889    -0.29600
H299        H  0.29405816  0.10295297  0.02971307     0.14600
H300        H  0.20672937  0.06773019  0.05200518     0.15200
C301        C  0.27613894  0.41920360  0.04048430    -0.14400
C302        C  0.24922836  0.41886616  0.06340296    -0.29600
H303        H  0.29798132  0.39079790  0.03587311     0.14600
H304        H  0.22456097  0.44544483  0.06616707     0.15200
C305        C  0.27823127  0.07623324  0.96765373    -0.14400
C306        C  0.25011981  0.08130262  0.94549666    -0.29600
H307        H  0.30252761  0.10093830  0.97269729     0.14600
H308        H  0.22378440  0.05801242  0.94238073     0.15200
C309        C  0.27153698  0.41112011  0.97573477    -0.14400
C310        C  0.23346184  0.40342222  0.96180995    -0.29600
H311        H  0.30100989  0.39091982  0.97116791     0.14600
H312        H  0.20414078  0.42384255  0.96642025     0.15200
C313        C  0.50991044  0.19048248  0.72745942    -0.14400
C314        C  0.47943969  0.22216376  0.73472817    -0.29600
H315        H  0.93410438  0.20548743  0.72875521     0.14600
H316        H  0.44627143  0.21862837  0.72620805     0.15200
C317        C  0.47840493  0.30527659  0.73679443    -0.14400
C318        C  0.50507473  0.31584009  0.71518171    -0.29600
H319        H  0.04305567  0.32013950  0.74055505     0.14600
H320        H  0.53242368  0.29325919  0.70960161     0.15200
C321        C  0.07650555  0.24814128  0.77072339    -0.14400
C322        C  0.03306706  0.25555819  0.77546984    -0.29600
H323        H  0.08895569  0.24431067  0.74890276     0.14600
H324        H  0.02209986  0.25841589  0.79776269     0.15200
C325        C  0.45468523  0.26244100  0.77911430    -0.14400
C326        C  0.41080056  0.26625214  0.77480435    -0.29600
H327        H  0.46700519  0.25920993  0.80113343     0.14600
H328        H  0.39730279  0.27111871  0.75326871     0.15200
C329        C  0.28703439  0.99479008  0.73802134    -0.14400
C330        C  0.30079190  0.02583699  0.71972668    -0.29600
H331        H  0.32603685  0.46043723  0.73839931     0.14600
H332        H  0.28147741  0.05642970  0.71702857     0.15200
C333        C  0.20466455  0.99632341  0.73466824    -0.14400
C334        C  0.17321159  0.02882122  0.73141918    -0.29600
H335        H  0.22238058  0.45526363  0.71674661     0.14600
H336        H  0.17603704  0.06058483  0.74243029     0.15200
C337        C  0.27170787  0.07054877  0.77855392    -0.14400
C338        C  0.24061175  0.04004048  0.77509911    -0.29600
H339        H  0.30413610  0.06542112  0.76933197     0.14600
H340        H  0.21018720  0.04477816  0.78716581     0.15200
C341        C  0.26187367  0.45367010  0.77349536    -0.14400
C342        C  0.22804688  0.42717245  0.77933142    -0.29600
H343        H  0.29171589  0.44996158  0.78650416     0.14600
H344        H  0.19659343  0.43191154  0.76836462     0.15200
C345        C  0.07590176  0.25547895  0.03652079    -0.14400
C346        C  0.08126534  0.27859340  0.06122080    -0.29600
H347        H  0.10020825  0.23017110  0.02993876     0.14600
H348        H  0.05880718  0.30638981  0.06623626     0.15200
C349        C  0.42123461  0.27595713  0.03803201    -0.14400
C350        C  0.41101551  0.24167649  0.05464435    -0.29600
H351        H  0.40153127  0.30665432  0.03868219     0.14600
H352        H  0.42968184  0.21044376  0.05254240     0.15200
C353        C  0.08497277  0.23157777  0.95220419    -0.14400
C354        C  0.07793518  0.26418928  0.97171767    -0.29600
H355        H  0.06437484  0.20267544  0.95219322     0.14600
H356        H  0.09919345  0.29254492  0.97280140     0.15200
C357        C  0.41771249  0.27834818  0.97364608    -0.14400
C358        C  0.40858156  0.24779750  0.95342917    -0.29600
H359        H  0.39564167  0.30684546  0.97744122     0.14600
H360        H  0.42973247  0.21813755  0.95148231     0.15200
C361        C  0.29914528  0.97433757  0.28463039    -0.14400
C362        C  0.27894800  0.00685277  0.26937478    -0.29600
H363        H  0.33184893  0.45972636  0.25696420     0.14600
H364        H  0.29633968  0.03751594  0.26679188     0.15200
C365        C  0.19902956  0.99939073  0.27971788    -0.14400
C366        C  0.15515685  0.99835802  0.27489108    -0.29600
H367        H  0.21071020  0.99764130  0.30195055     0.14600
H368        H  0.17986723  0.44791908  0.25368350     0.15200
C369        C  0.22305034  0.04502503  0.23806063    -0.14400
C370        C  0.25063799  0.05729660  0.21718412    -0.29600
H371        H  0.19541639  0.06711149  0.24388530     0.14600
H372        H  0.27938824  0.03606378  0.21249755     0.15200
C373        C  0.25503974  0.46627830  0.22874988    -0.14400
C374        C  0.26115781  0.42394177  0.23763806    -0.29600
H375        H  0.25111350  0.47148751  0.20565398     0.14600
H376        H  0.26449839  0.41713352  0.26052311     0.15200
C377        C  0.23284817  0.00282929  0.25547629    -0.00500
C378        C  0.46037420  0.79289093  0.01358961     0.04300
C379        C  0.46202404  0.79590227  0.98330759     0.04300
C380        C  0.00167493  0.75021273  0.96876871    -0.16200
C381        C  0.04117320  0.74592376  0.98444278     0.04300
C382        C  0.03957432  0.74579158  0.01482279     0.04300
C383        C  0.99845010  0.74858889  0.02858882    -0.16200
H384        H  0.99722046  0.74766726  0.05198550     0.06300
H385        H  0.00289522  0.75169501  0.94537773     0.06300
C386        C  0.26023947  0.49158793  0.75161696    -0.00500
C387        C  0.99657719  0.74990984  0.75186520    -0.00500
C388        C  0.26982099  0.95544545  0.98537749     0.04300
C389        C  0.26491815  0.95716025  0.01551241     0.04300
C390        C  0.26450502  0.99835127  0.03006056    -0.16200
C391        C  0.27801753  0.53891337  0.01597690     0.04300
C392        C  0.28191792  0.53425675  0.98577452     0.04300
C393        C  0.27618383  0.99474034  0.97062008    -0.16200
H394        H  0.28049949  0.99330293  0.94739420     0.06300
H395        H  0.26134036  0.99953366  0.05336787     0.06300
C396        C  0.38103698  0.76259656  0.92441896     0.44500
N397        N  0.34230072  0.73926929  0.88897062     0.03400
C398        C  0.18789443  0.86178389  0.80904125    -0.04500
H399        H  0.15774478  0.85295690  0.92086152     0.08900
C400        C  0.14397753  0.68605680  0.90707180    -0.04900
Co401      Co  0.29309062  0.81309353  0.85933413     0.74200
N402        N  0.20970748  0.83118013  0.89162467    -0.24000
Co403      Co  0.18109106  0.79310449  0.85839127     0.74100
C404        C  0.12312942  0.72154013  0.92416790     0.44600
N405        N  0.24507210  0.65081923  0.88457881     0.03000
N406        N  0.15656353  0.74979995  0.88857886     0.03100
N407        N  0.26078397  0.87567013  0.81076254    -0.44900
H408        H  0.35728489  0.83501092  0.91764375     0.08900
N409        N  0.25243175  0.83799049  0.89163975     0.03400
N410        N  0.15345435  0.75361186  0.82520114     0.03100
C411        C  0.11050605  0.72817351  0.79207431     0.44700
N412        N  0.28754624  0.65850877  0.88674309    -0.23500
C413        C  0.36185586  0.80716884  0.81033360    -0.04400
N414        N  0.37141039  0.72623127  0.90871380    -0.44600
N415        N  0.12087605  0.76527517  0.80721462    -0.44800
C416        C  0.39020996  0.77239751  0.79769887     0.44500
N417        N  0.25085349  0.84357190  0.82871026     0.03400
N418        N  0.29025430  0.66022315  0.82352013    -0.23500
N419        N  0.33342098  0.78235041  0.89013394    -0.24000
N420        N  0.24763400  0.65247764  0.82208537     0.03000
H421        H  0.34707182  0.62948430  0.80279563     0.08900
H422        H  0.13841496  0.65708254  0.79750260     0.08900
N423        N  0.20825318  0.83547922  0.82845579    -0.24100
N424        N  0.16458057  0.70670892  0.88585562    -0.23700
N425        N  0.34459752  0.74285651  0.82645026     0.03400
C426        C  0.22971629  0.87177031  0.92994866     0.44800
C427        C  0.30394065  0.63534784  0.90939082    -0.04900
N428        N  0.16412831  0.71083077  0.82311221    -0.23700
H429        H  0.14416272  0.65063597  0.91037740     0.08900
N430        N  0.26565332  0.86205751  0.91396445    -0.44900
H431        H  0.33805241  0.63382932  0.91633190     0.08900
C432        C  0.27749762  0.60620339  0.79180504     0.44600
C433        C  0.35630740  0.80009018  0.91209374    -0.04400
Co434      Co  0.31685547  0.69976785  0.85629857     0.73800
N435        N  0.23129781  0.62298791  0.90404430    -0.44600
C436        C  0.22264772  0.88854524  0.79750676     0.44900
N437        N  0.37805950  0.73339257  0.80884648    -0.44600
Co438      Co  0.20502757  0.67980147  0.85348583     0.73900
C439        C  0.13924382  0.69221825  0.80250715    -0.04900
C440        C  0.19218936  0.85200515  0.91499785    -0.04500
N441        N  0.33491093  0.78592829  0.82784470    -0.24000
N442        N  0.13147758  0.76018252  0.91116796    -0.44800
H443        H  0.15269430  0.86412722  0.80509841     0.08900
C444        C  0.31163658  0.63316428  0.80474042    -0.04900
Cl445      Cl  0.24906512  0.74647297  0.85647767    -0.47900
C446        C  0.26602349  0.61221982  0.92091090     0.44600
H447        H  0.36411541  0.84277404  0.80887036     0.08800
N448        N  0.23868962  0.61967974  0.80373389    -0.44600
C449        C  0.25627635  0.89542400  0.20777252     0.44500
N450        N  0.27110157  0.84630600  0.17490376     0.03400
C451        C  0.13305057  0.72043045  0.09117339    -0.04500
H452        H  0.12116896  0.68174160  0.19852103     0.08900
C453        C  0.30101390  0.62997602  0.18368499    -0.04900
Co454      Co  0.18986310  0.81078256  0.14773831     0.74200
N455        N  0.16141803  0.72957477  0.17763327    -0.24000
Co456      Co  0.19485320  0.69542129  0.14341200     0.74100
C457        C  0.26606947  0.60741470  0.19797529     0.44600
N458        N  0.34543491  0.73258935  0.16700382     0.03000
N459        N  0.23730901  0.65873535  0.17129023     0.03100
N460        N  0.12922152  0.79507816  0.09661905    -0.44900
H461        H  0.18153891  0.88474935  0.20325804     0.08900
N462        N  0.16175907  0.77340734  0.17954755     0.03400
N463        N  0.22772469  0.66456504  0.10857839     0.03900
C464        C  0.24330463  0.62819587  0.06973685     0.44700
N465        N  0.34290789  0.77635063  0.16899629    -0.23500
C466        C  0.19847408  0.86977764  0.09430410    -0.04400
N467        N  0.28929597  0.87563084  0.19251188    -0.44600
N468        N  0.20999840  0.64043269  0.08763282    -0.44800
C469        C  0.23450892  0.88346715  0.07655920     0.44500
N470        N  0.15379760  0.77639578  0.11702748     0.03400
N471        N  0.33414541  0.78081305  0.10606653    -0.23500
N472        N  0.22782277  0.84578000  0.17749233    -0.24000
N473        N  0.33683254  0.73721584  0.10440276     0.03000
H474        H  0.36186499  0.83223818  0.08050646     0.08900
H475        H  0.31734456  0.64103769  0.07472195     0.08900
N476        N  0.15634456  0.73275448  0.11460409    -0.24100
N477        N  0.28041190  0.66075405  0.16759237    -0.23700
N478        N  0.26117776  0.84664158  0.11191996     0.03400
C479        C  0.11343458  0.75619197  0.21076734     0.44800
C480        C  0.36938293  0.78944001  0.19056662    -0.04900
N481        N  0.27075291  0.66749625  0.10575459    -0.23700
H482        H  0.33602753  0.62200749  0.18346765     0.08900
N483        N  0.13372842  0.79026835  0.19879425    -0.44900
H484        H  0.37455987  0.82335756  0.19736431     0.08900
C485        C  0.37427175  0.75866526  0.06827480     0.44600
C486        C  0.21526693  0.87561385  0.19789337    -0.04400
Co487      Co  0.30295646  0.81320996  0.14058824     0.73800
N488        N  0.37294680  0.71437593  0.18607156    -0.44600
C489        C  0.11580737  0.76209285  0.07922392     0.44900
N490        N  0.27262344  0.86881320  0.08883297    -0.44600
Co491      Co  0.30885278  0.69907158  0.13619472     0.73900
C492        C  0.28363777  0.64568604  0.08185042    -0.04900
C493        C  0.13161953  0.71552160  0.19668827    -0.04500
N494        N  0.21809953  0.84627512  0.11529829    -0.24000
N495        N  0.22714427  0.62642898  0.18914699    -0.44800
H496        H  0.12909095  0.68681414  0.08339465     0.08900
C497        C  0.35651996  0.79744844  0.08401447    -0.04900
Cl498      Cl  0.24914657  0.75453144  0.14240339    -0.47900
C499        C  0.38921154  0.74833333  0.20150136     0.44600
H500        H  0.16338839  0.87544719  0.09139494     0.08800
N501        N  0.36144545  0.72255728  0.08252583    -0.44600
C502        C  0.47808779  0.86101158  0.70997003     0.44500
N503        N  0.46438924  0.91434484  0.68047664     0.03400
C504        C  0.12811989  0.52473001  0.58429788    -0.04500
H505        H  0.13924331  0.58106336  0.69070784     0.08900
C506        C  0.47796430  0.63009178  0.69166157    -0.04900
Co507      Co  0.05927666  0.95480205  0.65134208     0.74200
N508        N  0.10319345  0.52815799  0.67096898    -0.24000
Co509      Co  0.07166454  0.56000485  0.63661974     0.74100
C510        C  0.51935674  0.64494242  0.70439188     0.44600
N511        N  0.41448177  0.53255801  0.67355546     0.03000
N512        N  0.03680798  0.60259599  0.66483664     0.03100
N513        N  0.11523976  0.97462238  0.59821966    -0.44900
H514        H  0.08281211  0.88486672  0.70427775     0.08900
N515        N  0.08841324  0.99734553  0.68166352     0.03400
N516        N  0.03964874  0.59078034  0.60219367     0.03100
C517        C  0.02735930  0.62518749  0.56237361     0.44700
N518        N  0.39680097  0.99074560  0.67693173    -0.23500
C519        C  0.04645855  0.88797570  0.59922139    -0.04400
N520        N  0.44545511  0.88429884  0.69647552    -0.44600
N521        N  0.05922655  0.60908989  0.58010332    -0.44800
C522        C  0.00864280  0.86514377  0.58692214     0.44500
N523        N  0.08884425  0.99059421  0.61882154     0.03400
N524        N  0.40321799  0.98628968  0.61455121    -0.23500
N525        N  0.02813724  0.91910671  0.68354452    -0.24000
N526        N  0.41565745  0.53040036  0.61082585     0.03000
H527        H  0.37175357  0.93630664  0.58873126     0.08900
H528        H  0.44135726  0.62220910  0.57736133     0.08900
N529        N  0.10507851  0.51672536  0.60821035    -0.24100
N530        N  0.49002755  0.59862124  0.67216507    -0.23700
N531        N  0.46872238  0.91250933  0.61803137     0.03400
C532        C  0.15094081  0.50946351  0.70523174     0.44800
C533        C  0.36467049  0.97872908  0.69465713    -0.04900
N534        N  0.48782594  0.59389875  0.60842564    -0.23700
H535        H  0.44460269  0.64232961  0.69549389     0.08900
N536        N  0.12037966  0.98612067  0.70013817    -0.44900
H537        H  0.35427150  0.94511803  0.69759014     0.08900
C538        C  0.37838125  0.51296382  0.57338378     0.44600
C539        C  0.04759483  0.89078396  0.70204614    -0.04400
Co540      Co  0.43287450  0.95075415  0.64779061     0.73800
N541        N  0.38200147  0.55045751  0.68948063    -0.44600
C542        C  0.14202051  0.48081118  0.57351011     0.44900
N543        N  0.45206681  0.88801140  0.59696605    -0.44600
Co544      Co  0.45135637  0.56487922  0.64153163     0.73900
C545        C  0.47503657  0.61487486  0.58395772    -0.04900
C546        C  0.13092890  0.54643616  0.68986129    -0.04500
N547        N  0.02934522  0.91339580  0.62079028    -0.24000
N548        N  0.05423019  0.63300369  0.68205419    -0.44800
H549        H  0.13440939  0.55701907  0.57565956     0.08900
C550        C  0.37952248  0.97066538  0.59245718    -0.04900
Cl551      Cl  0.50642008  0.50304691  0.64172169    -0.47900
C552        C  0.36132807  0.51655961  0.70213302     0.44600
H553        H  0.08092938  0.88484424  0.59356044     0.08800
N554        N  0.39381001  0.54759692  0.58859297    -0.44600
C555        C  0.14052958  0.48076038  0.28799473     0.44500
N556        N  0.09697687  0.50857126  0.32029777     0.03400
C557        C  0.44880979  0.86998965  0.41318144    -0.04500
H558        H  0.42894304  0.85045284  0.30203642     0.08900
C559        C  0.38076269  0.53780197  0.30448690    -0.04900
Co560      Co  0.04514686  0.93108029  0.36226981     0.74200
N561        N  0.47130474  0.89126548  0.32824322    -0.24000
Co562      Co  0.43122526  0.92602077  0.35848327     0.74100
C563        C  0.36365692  0.49663734  0.29192426     0.44600
N564        N  0.48272202  0.59199895  0.32242927     0.03000
N565        N  0.39684876  0.96147893  0.32668440     0.03100
N566        N  0.02400277  0.88115337  0.41787732    -0.44900
H567        H  0.11866923  0.91956901  0.30712813     0.08900
N568        N  0.01558877  0.89364882  0.32982892     0.03400
N569        N  0.39427252  0.96240386  0.38961491     0.03100
C570        C  0.38377231  0.50632925  0.42569252     0.44700
N571        N  0.02878170  0.58388464  0.31844728    -0.23500
C572        C  0.09837782  0.95421665  0.41698320    -0.04400
N573        N  0.12472004  0.51933441  0.29974147    -0.44600
N574        N  0.37027539  0.94687498  0.41090317    -0.44800
C575        C  0.14263007  0.50667263  0.41959819     0.44500
N576        N  0.00933887  0.89672409  0.39281871     0.03400
N577        N  0.03660370  0.59403651  0.38131563    -0.23500
N578        N  0.07974565  0.96749730  0.33203954    -0.24000
N579        N  0.48698431  0.59403820  0.38595347     0.03000
H580        H  0.09007655  0.62181922  0.40597068     0.08900
H581        H  0.39092321  0.57936268  0.41423634     0.08900
N582        N  0.46494540  0.89161918  0.39078410    -0.24100
N583        N  0.41077193  0.52442108  0.32449854    -0.23700
N584        N  0.10243794  0.51984402  0.38255937     0.03400
C585        C  0.50465474  0.84317439  0.29781461     0.44800
C586        C  0.04157948  0.60692429  0.29560621    -0.04900
N587        N  0.41869043  0.52720382  0.38709815    -0.23700
H588        H  0.37140328  0.57186796  0.29979851     0.08900
N589        N  0.03680577  0.86420439  0.31314712    -0.44900
H590        H  0.07530999  0.61199020  0.28936098     0.08900
C591        C  0.01832006  0.63929676  0.41801298     0.44600
C592        C  0.10867055  0.95366829  0.31173278    -0.04400
Co593      Co  0.06684041  0.55215186  0.35033828     0.73800
N594        N  0.46527210  0.61652663  0.30147839    -0.44600
C595        C  0.98913628  0.86623404  0.43265710     0.44900
N596        N  0.12831182  0.53897445  0.40182895    -0.44600
Co597      Co  0.44897218  0.56031595  0.35475476     0.73900
C598        C  0.39695881  0.54443108  0.40971800    -0.04900
C599        C  0.46163792  0.86126031  0.30753677    -0.04500
N600        N  0.07366108  0.96844696  0.39478966    -0.24000
N601        N  0.36592590  0.94457633  0.30986448    -0.44800
H602        H  0.41409877  0.86682385  0.41757432     0.08900
C603        C  0.05509641  0.61886925  0.40212385    -0.04900
Cl604      Cl  0.50559202  0.49972877  0.35298036    -0.47900
C605        C  0.49950191  0.62990873  0.28577203     0.44600
H606        H  0.10749234  0.91999849  0.42135082     0.08800
N607        N  0.47261861  0.61851735  0.40834499    -0.44600
C608        C  0.02368727  0.79551259  0.51787520     0.04300
C609        C  0.00554891  0.80790415  0.49080266     0.04300
C610        C  0.99470997  0.77401453  0.47077053    -0.16200
C611        C  0.99941847  0.72851173  0.47797820     0.04300
C612        C  0.01411941  0.71695372  0.50621711     0.04300
C613        C  0.02771111  0.75084870  0.52505872    -0.16200
H614        H  0.03827292  0.74298297  0.54685307     0.06300
H615        H  0.98087943  0.78268784  0.44994031     0.06300
C616        C  0.27858684  0.02385729  0.48651348     0.04300
C617        C  0.28063621  0.03357924  0.51638818     0.04300
C618        C  0.24116295  0.03966233  0.53178839    -0.16200
C619        C  0.19980743  0.03625755  0.51833664     0.04300
C620        C  0.19765169  0.02951115  0.48814202     0.04300
C621        C  0.23719448  0.02294798  0.47272186    -0.16200
H622        H  0.23577486  0.01757572  0.44952887     0.06300
H623        H  0.24259463  0.04615245  0.55488161     0.06300
C624        C  0.99719905  0.73975440  0.24594718    -0.00500
C625        C  0.48871833  0.78680708  0.26085555    -0.14400
C626        C  0.51423804  0.80110191  0.28244561    -0.29600
H627        H  0.46162508  0.80857489  0.25369081     0.14600
H628        H  0.04471274  0.78033528  0.28930444     0.15200
C629        C  0.48872846  0.70531504  0.26840133    -0.14400
C630        C  0.49659406  0.66208965  0.26239637    -0.29600
H631        H  0.98912586  0.71259645  0.29090589     0.14600
H632        H  0.50777515  0.65157477  0.24110022     0.15200
C633        C  0.02243461  0.66787431  0.44437979    -0.14400
C634        C  0.98987542  0.69452947  0.45513503    -0.29600
H635        H  0.54219856  0.65965285  0.46123403     0.14600
H636        H  0.95815092  0.69625417  0.44412558     0.15200
C637        C  0.98399821  0.87937790  0.46310694    -0.14400
C638        C  0.99155851  0.85557288  0.48704128    -0.29600
H639        H  0.97282917  0.91368224  0.46649311     0.14600
H640        H  0.47373525  0.86916688  0.50592170     0.15200
C641        C  0.15523588  0.02838275  0.47188509    -0.14400
C642        C  0.14826310  0.99525672  0.45289632    -0.29600
H643        H  0.15544761  0.46280054  0.46916399     0.14600
H644        H  0.17152640  0.96710025  0.45218402     0.15200
C645        C  0.31867911  0.01645711  0.46876307    -0.14400
C646        C  0.32247531  0.98250891  0.44957638    -0.29600
H647        H  0.34392071  0.04121082  0.46997778     0.14600
H648        H  0.32840863  0.53778941  0.44855831     0.15200
C649        C  0.15948925  0.00738239  0.55919125    -0.14400
C650        C  0.16045146  0.03603115  0.53714856    -0.29600
H651        H  0.18535212  0.98179748  0.56111259     0.14600
H652        H  0.15962858  0.52462289  0.52433878     0.15200
C653        C  0.32284234  0.03413394  0.53289079    -0.14400
C654        C  0.32707778  0.00981623  0.55686540    -0.29600
H655        H  0.36500750  0.45444299  0.52998078     0.14600
H656        H  0.30115236  0.98733787  0.56223521     0.15200
C657        C  0.03720376  0.65700147  0.53936559    -0.14400
C658        C  0.00836246  0.67228856  0.51920561    -0.29600
H659        H  0.06928236  0.67189854  0.54098049     0.14600
H660        H  0.46300679  0.65086628  0.52195147     0.15200
C661        C  0.00686171  0.83029412  0.56450669    -0.14400
C662        C  0.03264547  0.82865687  0.54111093    -0.29600
H663        H  0.44945044  0.82404356  0.55506302     0.14600
H664        H  0.05653535  0.85408956  0.53762673     0.15200
C665        C  0.07294715  0.76358700  0.22815011    -0.14400
C666        C  0.04194591  0.73298321  0.23065984    -0.29600
H667        H  0.06734554  0.79680038  0.23685576     0.14600
H668        H  0.04814415  0.70115569  0.21992939     0.15200
C669        C  0.41968598  0.74366306  0.22589511    -0.14400
C670        C  0.46318993  0.73705204  0.22167100    -0.29600
H671        H  0.40711760  0.75119365  0.24737644     0.14600
H672        H  0.47517937  0.73136059  0.19979046     0.15200
C673        C  0.27482896  0.58260113  0.03045112    -0.14400
C674        C  0.24089491  0.59254308  0.04806771    -0.29600
H675        H  0.30229901  0.60464367  0.02868525     0.14600
H676        H  0.21272353  0.57113477  0.04859034     0.15200
C677        C  0.26218173  0.91698014  0.03288793    -0.14400
C678        C  0.23105208  0.91494915  0.05305304    -0.29600
H679        H  0.28807924  0.89140742  0.03109492     0.14600
H680        H  0.20376444  0.93915712  0.05346600     0.15200
C681        C  0.28595503  0.57331800  0.96657652    -0.14400
C682        C  0.26454905  0.57502581  0.94110353    -0.29600
H683        H  0.30512481  0.60128313  0.97374945     0.14600
H684        H  0.24165421  0.54921275  0.93553708     0.15200
C685        C  0.26729062  0.91404009  0.96810940    -0.14400
C686        C  0.22949577  0.90320731  0.95469173    -0.29600
H687        H  0.29815815  0.89708143  0.96231618     0.14600
H688        H  0.19873413  0.92051174  0.96030545     0.15200
C689        C  0.52609799  0.68061245  0.72626241    -0.14400
C690        C  0.49807386  0.71621946  0.72886197    -0.29600
H691        H  0.05240838  0.71798572  0.70815405     0.14600
H692        H  0.47095699  0.71911570  0.71344644     0.15200
C693        C  0.50247362  0.79777809  0.74035678    -0.14400
C694        C  0.47178577  0.81706178  0.72306292    -0.29600
H695        H  0.95892633  0.79410927  0.72047742     0.14600
H696        H  0.44122643  0.80038522  0.71857072     0.15200
C697        C  0.07179409  0.72270088  0.77270070    -0.14400
C698        C  0.03866249  0.75343363  0.77069899    -0.29600
H699        H  0.07000764  0.69127224  0.76113633     0.14600
H700        H  0.04080097  0.78307170  0.78430373     0.15200
C701        C  0.45544775  0.74599907  0.76976893    -0.14400
C702        C  0.43071401  0.77968453  0.78108882    -0.29600
H703        H  0.44573637  0.71231726  0.77399296     0.14600
H704        H  0.44036089  0.81370068  0.77859028     0.15200
C705        C  0.30386887  0.48888427  0.73470248    -0.14400
C706        C  0.31750416  0.52026094  0.71643249    -0.29600
H707        H  0.30837234  0.96548200  0.74091113     0.14600
H708        H  0.29715390  0.55004139  0.71309547     0.15200
C709        C  0.22176400  0.48548063  0.72988240    -0.14400
C710        C  0.18729597  0.51446153  0.72655221    -0.29600
H711        H  0.20205043  0.96629605  0.72155558     0.14600
H712        H  0.18694503  0.54603314  0.73804511     0.15200
C713        C  0.28543155  0.56551788  0.77408035    -0.14400
C714        C  0.25461870  0.53463638  0.76984306    -0.29600
H715        H  0.31843967  0.56048386  0.76573837     0.14600
H716        H  0.22358582  0.53935359  0.78122293     0.15200
C717        C  0.24617983  0.95882383  0.77619958    -0.14400
C718        C  0.21650056  0.92654575  0.77775290    -0.29600
H719        H  0.27471749  0.95673440  0.79056970     0.14600
H720        H  0.18625488  0.92824146  0.76512272     0.15200
C721        C  0.07944996  0.74174341  0.03322244    -0.14400
C722        C  0.08341600  0.76910435  0.05609230    -0.29600
H723        H  0.10364384  0.71512144  0.02913079     0.14600
H724        H  0.06081805  0.79760551  0.05845817     0.15200
C725        C  0.41825000  0.79141709  0.02958035    -0.14400
C726        C  0.41071568  0.75768867  0.04739202    -0.29600
H727        H  0.39444075  0.81891633  0.02766744     0.14600
H728        H  0.43344480  0.72908537  0.04762960     0.15200
C729        C  0.08939486  0.71613667  0.94630459    -0.14400
C730        C  0.08289086  0.74544585  0.96806337    -0.29600
H731        H  0.06760708  0.68842969  0.94374420     0.14600
H732        H  0.10592863  0.77174507  0.97196230     0.15200
C733        C  0.42176648  0.79523427  0.96526529    -0.14400
C734        C  0.41814467  0.76383650  0.94469685    -0.29600
H735        H  0.39515879  0.81946207  0.96918010     0.14600
H736        H  0.44351697  0.73773053  0.94268274     0.15200
C737        C  0.32834330  0.48952237  0.27009477    -0.14400
C738        C  0.29138363  0.51550821  0.26851742    -0.29600
H739        H  0.28308049  0.94292636  0.28698713     0.14600
H740        H  0.28935833  0.54446669  0.28277042     0.15200
C741        C  0.21088434  0.50583939  0.26925457    -0.14400
C742        C  0.17850152  0.47628091  0.26826880    -0.29600
H743        H  0.20739736  0.53324366  0.28469971     0.14600
H744        H  0.14204324  0.00090933  0.25309567     0.15200
C745        C  0.24196642  0.54867252  0.23084507    -0.14400
C746        C  0.27284143  0.56567821  0.21407602    -0.29600
H747        H  0.21011159  0.56624868  0.23214533     0.14600
H748        H  0.30533802  0.54951822  0.21322866     0.15200
C749        C  0.22877365  0.96206728  0.23530346    -0.14400
C750        C  0.26249092  0.93497268  0.22649776    -0.29600
H751        H  0.19597396  0.95519716  0.22719620     0.14600
H752        H  0.29623653  0.94249185  0.23197645     0.15200
C753        C  0.75461729  0.50174719  0.25268238    -0.00500
C754        C  0.95498602  0.26962666  0.01688864     0.04300
C755        C  0.95620997  0.27347093  0.98667756     0.04300
C756        C  0.49909689  0.26948464  0.97406960    -0.16200
C757        C  0.54045126  0.26449157  0.98778885     0.04300
C758        C  0.54206313  0.26532717  0.01838101     0.04300
C759        C  0.50240839  0.26918697  0.03399022    -0.16200
H760        H  0.50329127  0.26814073  0.05739289     0.06300
H761        H  0.49731849  0.27083858  0.95070661     0.06300
C762        C  0.74236697  0.99090132  0.75325199    -0.00500
C763        C  0.48738768  0.26323600  0.75428774    -0.00500
C764        C  0.77565196  0.45094485  0.98812636     0.04300
C765        C  0.77798759  0.45350633  0.01870514     0.04300
C766        C  0.78044675  0.49560999  0.03193289    -0.16200
C767        C  0.76808988  0.04011735  0.01423805     0.04300
C768        C  0.76846945  0.03825605  0.98391159     0.04300
C769        C  0.77738267  0.49019816  0.97215211    -0.16200
H770        H  0.77715513  0.48809826  0.94874313     0.06300
H771        H  0.78269496  0.49834876  0.05526779     0.06300
C772        C  0.87485855  0.25082738  0.92550952     0.44500
N773        N  0.83720667  0.23220882  0.88832826     0.03400
C774        C  0.69927250  0.37220452  0.80688877    -0.04500
H775        H  0.66501412  0.36291791  0.91674565     0.08900
C776        C  0.63481996  0.20287844  0.90657792    -0.04900
Co777      Co  0.79846581  0.30990892  0.85652663     0.74200
N778        N  0.71605170  0.33790647  0.88796350    -0.24000
Co779      Co  0.68365468  0.30263521  0.85532210     0.74100
C780        C  0.61735673  0.24091988  0.92296278     0.44600
N781        N  0.73140825  0.15588093  0.88475356     0.03000
N782        N  0.65377248  0.26372878  0.88658529     0.03100
N783        N  0.77348635  0.37575960  0.80746069    -0.44900
H784        H  0.86133961  0.32532488  0.91750065     0.08900
N785        N  0.75941088  0.34047134  0.88859096     0.03400
N786        N  0.65126698  0.26442636  0.82298198     0.03100
C787        C  0.59981671  0.23985807  0.79502197     0.44700
N788        N  0.77446354  0.15931072  0.88686001    -0.23500
C789        C  0.86887466  0.28925092  0.80682199    -0.04400
N790        N  0.86200589  0.21598072  0.90948866    -0.44600
N791        N  0.61648262  0.27718358  0.80709110    -0.44800
C792        C  0.89098862  0.24823642  0.79571941     0.44500
N793        N  0.75997278  0.34407755  0.82481975     0.03400
N794        N  0.77810908  0.15806327  0.82377064    -0.23500
N795        N  0.83406752  0.27590470  0.88872749    -0.24000
N796        N  0.73493170  0.15417297  0.82203840     0.03000
H797        H  0.83284496  0.12386158  0.80294600     0.08900
H798        H  0.62040208  0.16765195  0.80368508     0.08900
N799        N  0.71640329  0.34154110  0.82496335    -0.24100
N800        N  0.65752320  0.22006417  0.88492083    -0.23700
N801        N  0.84069026  0.23161803  0.82576123     0.03400
C802        C  0.73795953  0.37422932  0.92740462     0.44800
C803        C  0.78864960  0.13631913  0.91001278    -0.04900
N804        N  0.65709818  0.22073187  0.82253905    -0.23700
H805        H  0.63131307  0.16793593  0.91057565     0.08900
N806        N  0.77386672  0.36215539  0.91176376    -0.44900
H807        H  0.82255583  0.13188744  0.91702566     0.08900
C808        C  0.76181865  0.10648103  0.79136749     0.44600
C809        C  0.85688559  0.29088959  0.91170545    -0.04400
Co810      Co  0.80800615  0.19508200  0.85612508     0.73800
N811        N  0.71479947  0.13112124  0.90496947    -0.44600
C812        C  0.73702545  0.39464191  0.79494596     0.44900
N813        N  0.87171857  0.21446715  0.80873311    -0.44600
Co814      Co  0.69495079  0.18734205  0.85310628     0.73900
C815        C  0.62667686  0.20270903  0.80537782    -0.04900
C816        C  0.69954690  0.35930960  0.91130164    -0.04500
N817        N  0.83820662  0.27547676  0.82546403    -0.24000
N818        N  0.62939406  0.27764886  0.90888434    -0.44800
H819        H  0.66450502  0.38025548  0.80417422     0.08900
C820        C  0.79765107  0.13006045  0.80485344    -0.04900
Cl821      Cl  0.74624567  0.24890102  0.85472154    -0.47900
C822        C  0.74858247  0.11830290  0.92204027     0.44600
H823        H  0.87745820  0.32334605  0.80362340     0.08800
N824        N  0.72368055  0.12258636  0.80326679    -0.44600
C825        C  0.77297826  0.38762196  0.21288548     0.44500
N826        N  0.78244587  0.33463729  0.18184167     0.03400
C827        C  0.63547192  0.22939432  0.09232924    -0.04500
H828        H  0.61484007  0.18186794  0.19761497     0.08900
C829        C  0.78516550  0.11614449  0.18867568    -0.04900
Co830      Co  0.69779877  0.30909037  0.15333727     0.74200
N831        N  0.65892155  0.22885696  0.17946093    -0.24000
Co832      Co  0.69073967  0.19413721  0.14540633     0.74100
C833        C  0.74629620  0.09696466  0.20096993     0.44600
N834        N  0.84439249  0.21431232  0.17443388     0.03000
N835        N  0.72631310  0.15166388  0.17386585     0.03100
N836        N  0.63835276  0.30330600  0.10038930    -0.44900
H837        H  0.69736832  0.38476995  0.20825045     0.08900
N838        N  0.66319985  0.27210564  0.18345782     0.03400
N839        N  0.72272812  0.16140498  0.11095872     0.03900
C840        C  0.73785808  0.12525951  0.07190105     0.44700
N841        N  0.84689411  0.25793667  0.17622795    -0.23500
C842        C  0.71522039  0.37111320  0.10194618    -0.04400
N843        N  0.80357302  0.36388498  0.19791311    -0.44600
N844        N  0.70431833  0.14076138  0.08865974    -0.44800
C845        C  0.75302658  0.38192904  0.08462513     0.44500
N846        N  0.65991416  0.28081912  0.12066475     0.03400
N847        N  0.83910172  0.26445537  0.11328370    -0.23500
N848        N  0.73911913  0.33824255  0.18453833    -0.24000
N849        N  0.83804735  0.22090462  0.11166027     0.03000
H850        H  0.86814323  0.31335908  0.08636417     0.08900
H851        H  0.81243793  0.12829331  0.08032264     0.08900
N852        N  0.65850099  0.23744545  0.11668837    -0.24100
N853        N  0.76988632  0.14944463  0.17230634    -0.23700
N854        N  0.77443347  0.33902437  0.11891424     0.03400
C855        C  0.61218332  0.25486501  0.21304024     0.44800
C856        C  0.87788251  0.26796880  0.19595976    -0.04900
N857        N  0.76614610  0.15883737  0.11013645    -0.23700
H858        H  0.81914271  0.10426784  0.18975745     0.08900
N859        N  0.63579992  0.28880353  0.20330917    -0.44900
H860        H  0.88903592  0.30094694  0.20087609     0.08900
C861        C  0.87350945  0.23918935  0.07414972     0.44600
C862        C  0.72992278  0.37054215  0.20410539    -0.04400
Co863      Co  0.81126724  0.29939599  0.14766668     0.73800
N864        N  0.87358904  0.19349601  0.19135377    -0.44600
C865        C  0.62283758  0.27329083  0.08143931     0.44900
N866        N  0.78898851  0.36183059  0.09673874    -0.44600
Co867      Co  0.80510420  0.18534166  0.14240239     0.73900
C868        C  0.77877161  0.13664594  0.08627502    -0.04900
C869        C  0.62744902  0.21500376  0.19725193    -0.04500
N870        N  0.73138359  0.34361207  0.12214640    -0.24000
N871        N  0.71067445  0.12008441  0.19048180    -0.44800
H872        H  0.62847718  0.19702855  0.08339953     0.08900
C873        C  0.86087355  0.27917527  0.09045962    -0.04900
Cl874      Cl  0.75118646  0.24692762  0.14773872    -0.47900
C875        C  0.89558519  0.22510646  0.20599913     0.44600
H876        H  0.68098682  0.38129432  0.09919093     0.08800
N877        N  0.85915444  0.20427532  0.08884478    -0.44600
C878        C  0.99526640  0.36752904  0.70251481     0.44500
N879        N  0.98504194  0.41935352  0.67165591     0.03400
C880        C  0.60825372  0.02976838  0.59675949    -0.04500
H881        H  0.62035693  0.06835674  0.70664015     0.08900
C882        C  0.93735694  0.13054674  0.69032240    -0.04900
Co883      Co  0.56071285  0.44147044  0.63949725     0.74200
N884        N  0.58246891  0.02088998  0.68243698    -0.24000
Co885      Co  0.55067198  0.05732392  0.64983302     0.74100
C886        C  0.97280710  0.15601850  0.70334022     0.44600
N887        N  0.89752596  0.02228374  0.67480874     0.03000
N888        N  0.51534777  0.09659677  0.67958171     0.03100
N889        N  0.61492222  0.45457797  0.58577335    -0.44900
H890        H  0.57665719  0.36572936  0.68914483     0.08900
N891        N  0.59911009  0.47323400  0.67049662     0.03400
N892        N  0.51923632  0.09245113  0.61708244     0.03100
C893        C  0.50749642  0.13293583  0.58015551     0.44700
N894        N  0.91838435  0.49356276  0.66633266    -0.23500
C895        C  0.53189281  0.38819551  0.58403847    -0.04400
N896        N  0.96438064  0.39067330  0.68759689    -0.44600
N897        N  0.53930344  0.11533828  0.59721706    -0.44800
C898        C  0.48930031  0.37682809  0.57140058     0.44500
N899        N  0.59388243  0.47376768  0.60773625     0.03400
N900        N  0.92434297  0.48757086  0.60383307    -0.23500
N901        N  0.52663129  0.40935965  0.67109569    -0.24000
N902        N  0.90495323  0.01138329  0.61235197     0.03000
H903        H  0.89281323  0.43850069  0.57706365     0.08900
H904        H  0.91578227  0.11117921  0.57868620     0.08900
N905        N  0.58398179  0.01793816  0.61930482    -0.24100
N906        N  0.95768915  0.09991363  0.67326322    -0.23700
N907        N  0.99160521  0.41427910  0.60912170     0.03400
C908        C  0.62678234  0.99394127  0.71662914     0.44800
C909        C  0.88829386  0.48112462  0.68533782    -0.04900
N910        N  0.96382209  0.08858033  0.61046559    -0.23700
H911        H  0.90208439  0.13634650  0.69178074     0.08900
N912        N  0.62749770  0.45282338  0.68807639    -0.44900
H913        H  0.87952822  0.44728847  0.68923170     0.08900
C914        C  0.86957738  0.98213475  0.57698734     0.44600
C915        C  0.54268794  0.37771720  0.68839165    -0.04400
Co916      Co  0.95451744  0.45336442  0.63773641     0.73800
N917        N  0.86341166  0.03948895  0.68920145    -0.44600
C918        C  0.62318432  0.98797521  0.58339590     0.44900
N919        N  0.97619214  0.39045610  0.58724624    -0.44600
Co920      Co  0.93041339  0.05589519  0.64270003     0.73900
C921        C  0.94960845  0.10858290  0.58615259    -0.04900
C922        C  0.61054846  0.03456155  0.70297555    -0.04500
N923        N  0.52154639  0.41117620  0.60828111    -0.24000
N924        N  0.53349747  0.12512082  0.69772949    -0.44800
H925        H  0.61531232  0.06336753  0.59084526     0.08900
C926        C  0.90038558  0.47276132  0.58142176    -0.04900
Cl927      Cl  0.99456516  0.00534341  0.64852972    -0.47900
C928        C  0.84574297  0.00649214  0.70405887     0.44600
H929        H  0.56482591  0.38024124  0.57639845     0.08800
N930        N  0.88069761  0.02122293  0.58922920    -0.44600
C931        C  0.62581169  0.98865579  0.30005300     0.44500
N932        N  0.57997899  0.00667661  0.33365356     0.03400
C933        C  0.97347013  0.39534296  0.41866117    -0.04500
H934        H  0.92721356  0.37114415  0.30952687     0.08900
C935        C  0.86087898  0.01655074  0.30634205    -0.04900
Co936      Co  0.56182325  0.43943528  0.35016695     0.74200
N937        N  0.97981828  0.40388526  0.33232518    -0.24000
Co938      Co  0.94966568  0.44676575  0.36327748     0.74100
C939        C  0.84311663  0.97527502  0.29476128     0.44600
N940        N  0.95855788  0.07817541  0.32740611     0.03000
N941        N  0.91239140  0.47835632  0.33174879     0.03100
N942        N  0.54890626  0.37976363  0.40175228    -0.44900
H943        H  0.62765633  0.42616807  0.29134107     0.08900
N944        N  0.52343896  0.40579747  0.32000980     0.03400
N945        N  0.92138336  0.49053070  0.39381111     0.03100
C946        C  0.85470112  0.97955739  0.42505019     0.44700
N947        N  0.50734618  0.07845670  0.33168387    -0.23500
C948        C  0.62190835  0.45502954  0.40255300    -0.04400
N949        N  0.60588010  0.02347164  0.31387342    -0.44600
N950        N  0.89780887  0.48019482  0.41658935    -0.44800
C951        C  0.61340736  0.98547684  0.43372909     0.44500
N952        N  0.52984156  0.40624530  0.38250648     0.03400
N953        N  0.50301316  0.07549392  0.39470022    -0.23500
N954        N  0.59404934  0.47485837  0.31864569    -0.24000
N955        N  0.95394079  0.07835100  0.38978226     0.03000
H956        H  0.54779138  0.10717303  0.42434964     0.08900
H957        H  0.86063380  0.05409022  0.41681318     0.08900
N958        N  0.98699606  0.41603349  0.39514503    -0.24100
N959        N  0.89273739  0.00374266  0.32506693    -0.23700
N960        N  0.57427469  0.00596335  0.39713524     0.03400
C961        C  0.99971766  0.35342181  0.29880477     0.44800
C962        C  0.52118128  0.10924783  0.31320672    -0.04900
N963        N  0.89153550  0.00544769  0.38811787    -0.23700
H964        H  0.84798931  0.05017602  0.30405250     0.08900
N965        N  0.53775747  0.37589498  0.30068444    -0.44900
H966        H  0.55477709  0.11972849  0.31129257     0.08900
C967        C  0.47267045  0.11731329  0.42943886     0.44600
C968        C  0.62006229  0.46048749  0.29694564    -0.04400
Co969      Co  0.54194912  0.04226770  0.36421943     0.73800
N970        N  0.94111052  0.10850694  0.30987858    -0.44600
C971        C  0.51662004  0.36625912  0.41900598     0.44900
N972        N  0.59781518  0.02144305  0.41918672    -0.44600
Co973      Co  0.92371720  0.04175216  0.35726919     0.73900
C974        C  0.86789388  0.01981768  0.41095175    -0.04900
C975        C  0.96205746  0.37593275  0.31287490    -0.04500
N976        N  0.59760116  0.47265898  0.38128482    -0.24000
N977        N  0.88062236  0.45910827  0.31701687    -0.44800
H978        H  0.93948824  0.39175570  0.42488130     0.08900
C979        C  0.51445811  0.10024389  0.41767265    -0.04900
Cl980      Cl  0.98443252  0.98638583  0.35934590    -0.47900
C981        C  0.97481842  0.13109369  0.29901978     0.44600
H982        H  0.62790738  0.42002234  0.40617379     0.08800
N983        N  0.93328639  0.10480714  0.40864772    -0.44600
C984        C  0.50327919  0.29104365  0.51205440     0.04300
C985        C  0.50072127  0.28771757  0.48178626     0.04300
C986        C  0.49703955  0.24561408  0.46878488    -0.16200
C987        C  0.49552430  0.20710317  0.48547407     0.04300
C988        C  0.49758000  0.21068757  0.51579355     0.04300
C989        C  0.50156369  0.25268632  0.52865008    -0.16200
H990        H  0.50263086  0.25585005  0.55197482     0.06300
H991        H  0.49521550  0.24274449  0.44546111     0.06300
C992        C  0.79532689  0.49825765  0.48342059     0.04300
C993        C  0.79322747  0.49195492  0.51329137     0.04300
C994        C  0.75284586  0.49751104  0.52731336    -0.16200
C995        C  0.71388235  0.50785331  0.51189259     0.04300
C996        C  0.71575974  0.51342400  0.48178658     0.04300
C997        C  0.75667736  0.50911134  0.46802989    -0.16200
H998        H  0.75824006  0.51301066  0.44479306     0.06300
H999        H  0.75184077  0.49403145  0.55059310     0.06300
C1000       C  0.50185540  0.23753628  0.25606039    -0.00500
C1001       C  0.00424090  0.27608926  0.27975088    -0.14400
C1002       C  0.99873102  0.32005042  0.27489328    -0.29600
H1003       H  0.01057618  0.26600491  0.30190457     0.14600
H1004       H  0.49606969  0.32716400  0.24595163     0.15200
C1005       C  0.00271172  0.19456690  0.27169184    -0.14400
C1006       C  0.96872892  0.17370910  0.28354851    -0.29600
H1007       H  0.53865579  0.18857908  0.28402023     0.14600
H1008       H  0.93557354  0.18813912  0.28204995     0.15200
C1009       C  0.46659107  0.15520115  0.44937650    -0.14400
C1010       C  0.49568120  0.16354469  0.47049489    -0.29600
H1011       H  0.92788558  0.18332189  0.43960557     0.14600
H1012       H  0.52164244  0.13922110  0.47573443     0.15200
C1013       C  0.52259100  0.32994227  0.43955347    -0.14400
C1014       C  0.49829258  0.32758886  0.46348591    -0.29600
H1015       H  0.54765045  0.30438967  0.43486165     0.14600
H1016       H  0.95706316  0.36008189  0.47391540     0.15200
C1017       C  0.67595217  0.51842808  0.46329592    -0.14400
C1018       C  0.67117142  0.48956883  0.44129091    -0.29600
H1019       H  0.63148201  0.03780445  0.48084113     0.14600
H1020       H  0.69389070  0.46106133  0.43948739     0.15200
C1021       C  0.83708900  0.49342999  0.46751797    -0.14400
C1022       C  0.84782879  0.52482345  0.44902497    -0.29600
H1023       H  0.85813275  0.46401512  0.47040772     0.14600
H1024       H  0.80019321  0.94912820  0.44763323     0.15200
C1025       C  0.66304294  0.48027877  0.54716850    -0.14400
C1026       C  0.67235054  0.51164277  0.52815306    -0.29600
H1027       H  0.68222964  0.44921465  0.54732097     0.14600
H1028       H  0.63800961  0.03849216  0.53712361     0.15200
C1029       C  0.83285339  0.48354045  0.53106926    -0.14400
C1030       C  0.85373593  0.51793436  0.54269177    -0.29600
H1031       H  0.84694180  0.03504425  0.53221629     0.14600
H1032       H  0.84397138  0.55145248  0.53644617     0.15200
C1033       C  0.51581775  0.16732392  0.55903549    -0.14400
C1034       C  0.49212214  0.17192641  0.53465205    -0.29600
H1035       H  0.54280759  0.18928094  0.56359710     0.14600
H1036       H  0.94001600  0.14538236  0.52523835     0.15200
C1037       C  0.47982297  0.34523877  0.54813683    -0.14400
C1038       C  0.50882726  0.33346265  0.52763648    -0.29600
H1039       H  0.03768678  0.31272973  0.54967459     0.14600
H1040       H  0.53911205  0.35122268  0.52503263     0.15200
C1041       C  0.57523608  0.26060085  0.23376671    -0.14400
C1042       C  0.53953701  0.23454977  0.23378801    -0.29600
H1043       H  0.57796051  0.28789788  0.24901749     0.14600
H1044       H  0.53819330  0.20789523  0.21780730     0.15200
C1045       C  0.93731341  0.21634062  0.22222808    -0.14400
C1046       C  0.95451711  0.24629800  0.24071954    -0.29600
H1047       H  0.95426649  0.18442858  0.21891510     0.14600
H1048       H  0.93536129  0.27677261  0.24483072     0.15200
C1049       C  0.76734129  0.08229530  0.03064232    -0.14400
C1050       C  0.73354271  0.09257098  0.04836160    -0.29600
H1051       H  0.79658577  0.10216008  0.03052184     0.14600
H1052       H  0.70376787  0.07345915  0.04734230     0.15200
C1053       C  0.77654082  0.41415472  0.03786296    -0.14400
C1054       C  0.75300928  0.41656390  0.06251252    -0.29600
H1055       H  0.79509729  0.38394997  0.03214429     0.14600
H1056       H  0.73105114  0.44514460  0.06644693     0.15200
C1057       C  0.77149016  0.07834178  0.96610158    -0.14400
C1058       C  0.74411102  0.08385914  0.94356576    -0.29600
H1059       H  0.79661418  0.10229335  0.97092472     0.14600
H1060       H  0.71678099  0.06172853  0.94057430     0.15200
C1061       C  0.77035629  0.40908209  0.97137596    -0.14400
C1062       C  0.73769652  0.40662008  0.95154776    -0.29600
H1063       H  0.79593319  0.38315861  0.97265750     0.14600
H1064       H  0.71115299  0.43168294  0.95170191     0.15200
C1065       C  0.96736311  0.19668775  0.72196958    -0.14400
C1066       C  0.00137977  0.22224481  0.73010086    -0.29600
H1067       H  0.54386947  0.19383774  0.73420555     0.14600
H1068       H  0.03350762  0.21328296  0.72120504     0.15200
C1069       C  0.01224588  0.30447366  0.73503223    -0.14400
C1070       C  0.98537369  0.32481731  0.71589634    -0.29600
H1071       H  0.45260792  0.32910040  0.74335732     0.14600
H1072       H  0.95350689  0.31093012  0.71105003     0.15200
C1073       C  0.55437416  0.23546657  0.78346729    -0.14400
C1074       C  0.53449280  0.26649912  0.76699527    -0.29600
H1075       H  0.53764588  0.20485398  0.78746791     0.14600
H1076       H  0.55293494  0.29611898  0.76291151     0.15200
C1077       C  0.95356587  0.27165498  0.76502017    -0.14400
C1078       C  0.93397494  0.24127618  0.78105316    -0.29600
H1079       H  0.93688906  0.30385283  0.76264014     0.14600
H1080       H  0.95011756  0.20879616  0.78324894     0.15200
C1081       C  0.78764578  0.98464494  0.73839833    -0.14400
C1082       C  0.80162562  0.01144713  0.71761618    -0.29600
H1083       H  0.81008950  0.46228439  0.71069304     0.14600
H1084       H  0.78082270  0.03972295  0.71140240     0.15200
C1085       C  0.70514599  0.98772963  0.73090486    -0.14400
C1086       C  0.66220308  0.98996483  0.73839551    -0.29600
H1087       H  0.72201758  0.53245085  0.71198502     0.14600
H1088       H  0.65291215  0.99216514  0.76097061     0.15200
C1089       C  0.76820311  0.06549598  0.77367808    -0.14400
C1090       C  0.73646199  0.03588740  0.76928039    -0.29600
H1091       H  0.80141963  0.05847550  0.76608020     0.14600
H1092       H  0.70455603  0.04331140  0.77906175     0.15200
C1093       C  0.76603057  0.44987576  0.76007158    -0.14400
C1094       C  0.73503575  0.43770116  0.77906485    -0.29600
H1095       H  0.79399854  0.42696283  0.75668431     0.14600
H1096       H  0.70589419  0.45908359  0.78203556     0.15200
C1097       C  0.58350391  0.25910400  0.03524546    -0.14400
C1098       C  0.59064578  0.28476203  0.05868771    -0.29600
H1099       H  0.60564436  0.23113389  0.03012493     0.14600
H1100       H  0.57001520  0.31442509  0.06230323     0.15200
C1101       C  0.91334624  0.26875149  0.03307575    -0.14400
C1102       C  0.90659141  0.23555345  0.05134494    -0.29600
H1103       H  0.89032449  0.29701809  0.03188552     0.14600
H1104       H  0.92842813  0.20625815  0.05106586     0.15200
C1105       C  0.58125968  0.23949680  0.94408285    -0.14400
C1106       C  0.58079821  0.26212225  0.96943358    -0.29600
H1107       H  0.55411260  0.21822326  0.93859223     0.14600
H1108       H  0.60963950  0.28006003  0.97629470     0.15200
C1109       C  0.91582701  0.27677488  0.96862846    -0.14400
C1110       C  0.90996722  0.24695039  0.94732516    -0.29600
H1111       H  0.89195749  0.30387132  0.97226963     0.14600
H1112       H  0.93254089  0.21830267  0.94552762     0.15200
C1113       C  0.79940628  0.96942152  0.28085752    -0.14400
C1114       C  0.77841003  0.00175445  0.26577400    -0.29600
H1115       H  0.79809946  0.45427267  0.29452138     0.14600
H1116       H  0.79522803  0.03274443  0.26317884     0.15200
C1117       C  0.69942720  0.99405775  0.27816621    -0.14400
C1118       C  0.65529482  0.99209543  0.27491073    -0.29600
H1119       H  0.71270284  0.99311812  0.30005126     0.14600
H1120       H  0.66759167  0.49238513  0.24275123     0.15200
C1121       C  0.72075552  0.04017964  0.23586301    -0.14400
C1122       C  0.74702760  0.05243986  0.21419277    -0.29600
H1123       H  0.69400358  0.06259188  0.24279216     0.14600
H1124       H  0.77491086  0.03063474  0.20849347     0.15200
C1125       C  0.75187900  0.45350759  0.24184557    -0.14400
C1126       C  0.78150227  0.43239136  0.22489586    -0.29600
H1127       H  0.72390993  0.43442164  0.24842306     0.14600
H1128       H  0.81159782  0.44856338  0.21909049     0.15200
C1129       C  0.73157609  0.99768503  0.25288367    -0.00500
C1130       C  0.95890033  0.75291366  0.01293436     0.04300
C1131       C  0.96066308  0.75386434  0.98257698     0.04300
C1132       C  0.50311072  0.79515930  0.96946248    -0.16200
C1133       C  0.54266436  0.79047572  0.98507494     0.04300
C1134       C  0.54105664  0.78775017  0.01541158     0.04300
C1135       C  0.49996306  0.78951685  0.02926764    -0.16200
H1136       H  0.49873616  0.78770601  0.05262556     0.06300
H1137       H  0.50427249  0.79687522  0.94609110     0.06300
C1138       C  0.76457301  0.49408422  0.74321270    -0.00500
C1139       C  0.49855691  0.75125628  0.75330265    -0.00500
C1140       C  0.76193471  0.95765047  0.98534458     0.04300
C1141       C  0.76461001  0.95938425  0.01563527     0.04300
C1142       C  0.76720235  0.00067326  0.02978332    -0.16200
C1143       C  0.77899781  0.53469002  0.01592072     0.04300
C1144       C  0.77885705  0.53208115  0.98558948     0.04300
C1145       C  0.76468625  0.99706793  0.96985471    -0.16200
H1146       H  0.76306785  0.99585175  0.94646846     0.06300
H1147       H  0.76891428  0.00222588  0.05318671     0.06300
C1148       C  0.88294121  0.73259691  0.91988097     0.44500
N1149       N  0.84349186  0.71656099  0.88313469     0.03400
C1150       C  0.70585319  0.86202988  0.80732993    -0.04500
H1151       H  0.68877205  0.86498819  0.92172158     0.08900
C1152       C  0.63867940  0.70592481  0.91297012    -0.04900
Co1153     Co  0.80556576  0.79676814  0.85398619     0.74200
N1154       N  0.73120324  0.83177266  0.89021821    -0.24000
Co1155     Co  0.69191480  0.79958495  0.85944200     0.74100
C1156       C  0.62485558  0.74600619  0.92889517     0.44600
N1157       N  0.73176412  0.64982816  0.88706213     0.03000
N1158       N  0.66203752  0.76403972  0.89184947     0.03100
N1159       N  0.78024965  0.85788012  0.80338497    -0.44900
H1160       H  0.87266607  0.80764144  0.91296627     0.08900
N1161       N  0.77437422  0.83048930  0.88714480     0.03400
N1162       N  0.65505662  0.76497211  0.82819653     0.03100
C1163       C  0.61205239  0.74770204  0.79310978     0.44700
N1164       N  0.77525269  0.64922397  0.88587041    -0.23500
C1165       C  0.86270844  0.77735070  0.80065627    -0.04400
N1166       N  0.86796040  0.69864857  0.90389650    -0.44600
N1167       N  0.62915311  0.78229736  0.80777790    -0.44800
C1168       C  0.88048071  0.73823049  0.78586923     0.44500
N1169       N  0.76643307  0.83249701  0.82442907     0.03400
N1170       N  0.76959120  0.64773616  0.82285069    -0.23500
N1171       N  0.84247703  0.76028055  0.88403330    -0.24000
N1172       N  0.72607126  0.64900762  0.82407496     0.03000
H1173       H  0.81636315  0.60854852  0.79759825     0.08900
H1174       H  0.62269746  0.67299922  0.80083028     0.08900
N1175       N  0.72310099  0.83429107  0.82712814    -0.24100
N1176       N  0.66184494  0.72031412  0.89057858    -0.23700
N1177       N  0.83848985  0.71776700  0.82002067     0.03400
C1178       C  0.76448841  0.87026221  0.92510740     0.44800
C1179       C  0.79129418  0.62550423  0.90822777    -0.04900
N1180       N  0.65580681  0.72111192  0.82758809    -0.23700
H1181       H  0.63191358  0.67168482  0.91736083     0.08900
N1182       N  0.79517793  0.85361228  0.90703527    -0.44900
H1183       H  0.82576414  0.61837657  0.91284000     0.08900
C1184       C  0.74165179  0.60065723  0.79098617     0.44600
C1185       C  0.86684188  0.77365421  0.90666064    -0.04400
Co1186     Co  0.80749682  0.68205972  0.85273019     0.73800
N1187       N  0.71676904  0.62684562  0.90882872    -0.44600
C1188       C  0.74375308  0.87712306  0.79152882     0.44900
N1189       N  0.86482944  0.70220968  0.79914918    -0.44600
Co1190     Co  0.69315507  0.68440804  0.85717885     0.73900
C1191       C  0.62918186  0.70716369  0.80630174    -0.04900
C1192       C  0.72152207  0.85650993  0.91393063    -0.04500
N1193       N  0.83714518  0.76156913  0.82124512    -0.24000
N1194       N  0.63991020  0.78084005  0.91429077    -0.44800
H1195       H  0.67126428  0.87095196  0.80468101     0.08900
C1196       C  0.78256693  0.61817757  0.80249125    -0.04900
Cl1197     Cl  0.74942382  0.74062483  0.85546637    -0.47900
C1198       C  0.75227460  0.61125833  0.92353558     0.44600
H1199       H  0.86978769  0.81185494  0.79753879     0.08800
N1200       N  0.70805105  0.62122519  0.80532025    -0.44600
C1201       C  0.75397183  0.89185852  0.20313979     0.44500
N1202       N  0.76991613  0.84047348  0.17188106     0.03400
C1203       C  0.63122490  0.70824532  0.09149032    -0.04500
H1204       H  0.61450858  0.68318757  0.19768135     0.08900
C1205       C  0.78801847  0.62719940  0.19513241    -0.04900
Co1206     Co  0.68984720  0.80450016  0.14293867     0.74200
N1207       N  0.65653807  0.72814537  0.17582729    -0.24000
Co1208     Co  0.69104021  0.68941837  0.14478030     0.74100
C1209       C  0.74913652  0.61029229  0.20890900     0.44600
N1210       N  0.84054079  0.72411066  0.17289822     0.03000
N1211       N  0.72838935  0.65563334  0.17604501     0.03100
N1212       N  0.63257345  0.78318343  0.08999542    -0.44900
H1213       H  0.67926077  0.88303189  0.19634555     0.08900
N1214       N  0.65677512  0.77194533  0.17504687     0.03400
N1215       N  0.72588438  0.65336011  0.11277866     0.03900
C1216       C  0.74380721  0.61595151  0.07472274     0.44700
N1217       N  0.84010659  0.76791847  0.17196053    -0.23500
C1218       C  0.70489593  0.86209923  0.09039569    -0.04400
N1219       N  0.78757991  0.87018924  0.18947102    -0.44600
N1220       N  0.70917940  0.63022582  0.09094155    -0.44800
C1221       C  0.74248164  0.87750247  0.07490566     0.44500
N1222       N  0.65588877  0.76743578  0.11209838     0.03400
N1223       N  0.83584223  0.76416052  0.10849960    -0.23500
N1224       N  0.72636268  0.84140881  0.17290140    -0.24000
N1225       N  0.83729132  0.72051792  0.10993285     0.03000
H1226       H  0.86410349  0.80976704  0.07869176     0.08900
H1227       H  0.81771684  0.62504680  0.08287504     0.08900
N1228       N  0.65589340  0.72375566  0.11325249    -0.24100
N1229       N  0.77195153  0.65482629  0.17491584    -0.23700
N1230       N  0.76563537  0.83528164  0.10886655     0.03400
C1231       C  0.60543411  0.75868078  0.20504216     0.44800
C1232       C  0.86673247  0.78295768  0.19293770    -0.04900
N1233       N  0.76931226  0.65378949  0.11206354    -0.23700
H1234       H  0.82245426  0.61839878  0.19868239     0.08900
N1235       N  0.62624543  0.79120168  0.19163328    -0.44900
H1236       H  0.87389139  0.81733077  0.19726327     0.08900
C1237       C  0.87443537  0.73425073  0.07203435     0.44600
C1238       C  0.71312855  0.87280099  0.19218255    -0.04400
Co1239     Co  0.80369685  0.80257013  0.14030160     0.73800
N1240       N  0.86687941  0.70778690  0.19335053    -0.44600
C1241       C  0.61678969  0.74754846  0.07584807     0.44900
N1242       N  0.77938895  0.86052592  0.08773400    -0.44600
Co1243     Co  0.80544068  0.68769944  0.14265604     0.73900
C1244       C  0.78365009  0.63079847  0.08889876    -0.04900
C1245       C  0.62544526  0.71655585  0.19459778    -0.04500
N1246       N  0.72230622  0.83597374  0.11074672    -0.24000
N1247       N  0.71328500  0.62926050  0.19614798    -0.44800
H1248       H  0.62477541  0.67375075  0.08699599     0.08900
C1249       C  0.85840974  0.77609528  0.08511797    -0.04900
Cl1250     Cl  0.74751845  0.74609745  0.14302728    -0.47900
C1251       C  0.88404850  0.74304273  0.20700470     0.44600
H1252       H  0.67022721  0.87057767  0.08760841     0.08800
N1253       N  0.86077935  0.70146691  0.08893435    -0.44600
C1254       C  0.01199959  0.86496373  0.71330003     0.44500
N1255       N  0.98495901  0.91358718  0.68385487     0.03400
C1256       C  0.61917594  0.52928316  0.58488024    -0.04500
H1257       H  0.64721203  0.56001779  0.69351815     0.08900
C1258       C  0.97963309  0.63709483  0.68294261    -0.04900
Co1259     Co  0.54676500  0.94264693  0.65126003     0.74200
N1260       N  0.60236854  0.51686772  0.67096370    -0.24000
Co1261     Co  0.56644768  0.55564024  0.64049573     0.74100
C1262       C  0.02026565  0.65570436  0.69454170     0.44600
N1263       N  0.91923761  0.53735783  0.66592281     0.03000
N1264       N  0.53361474  0.59407997  0.67246125     0.03100
N1265       N  0.60727062  0.95496208  0.59927713    -0.44900
H1266       H  0.55292183  0.86560345  0.70329530     0.08900
N1267       N  0.58096354  0.97717094  0.68317150     0.03400
N1268       N  0.53131260  0.59089213  0.60882935     0.03100
C1269       C  0.51611268  0.62395647  0.56877899     0.44700
N1270       N  0.90321028  0.97900699  0.67854554    -0.23500
C1271       C  0.52670710  0.88277339  0.59777302    -0.04400
N1272       N  0.97405973  0.88049488  0.70089688    -0.44600
N1273       N  0.54917767  0.60882167  0.58594007    -0.44800
C1274       C  0.48666344  0.86865360  0.58318553     0.44500
N1275       N  0.58346124  0.97426953  0.62009970     0.03400
N1276       N  0.90957974  0.96823016  0.61624294    -0.23500
N1277       N  0.50793514  0.91108457  0.68166223    -0.24000
N1278       N  0.92503627  0.53118350  0.60281450     0.03000
H1279       H  0.88513576  0.91152550  0.59285938     0.08900
H1280       H  0.95204099  0.62517189  0.56939450     0.08900
N1281       N  0.59622600  0.51729288  0.60797845    -0.24100
N1282       N  0.99322377  0.60476662  0.66448814    -0.23700
N1283       N  0.98645250  0.90746548  0.62165588     0.03400
C1284       C  0.65133725  0.48434493  0.70110920     0.44800
C1285       C  0.87202447  0.96595988  0.69698878    -0.04900
N1286       N  0.99627926  0.59480564  0.60093782    -0.23700
H1287       H  0.94582496  0.64866018  0.68591320     0.08900
N1288       N  0.60747513  0.95959874  0.70314990    -0.44900
H1289       H  0.86535158  0.93191615  0.70202428     0.08900
C1290       C  0.88635511  0.51285900  0.56604622     0.44600
C1291       C  0.51969409  0.87879076  0.70014975    -0.04400
Co1292     Co  0.94561368  0.94165280  0.65067114     0.73800
N1293       N  0.88989294  0.55602951  0.68400277    -0.44600
C1294       C  0.63071632  0.48758469  0.57005886     0.44900
N1295       N  0.97293825  0.87857673  0.60206248    -0.44600
Co1296     Co  0.95769743  0.56790143  0.63388562     0.73900
C1297       C  0.98523070  0.61638418  0.57640640    -0.04900
C1298       C  0.63483093  0.52718386  0.68975539    -0.04500
N1299       N  0.51214791  0.90980181  0.61911515    -0.24000
N1300       N  0.55231981  0.62107306  0.69149462    -0.44800
H1301       H  0.62736751  0.56277078  0.57945879     0.08900
C1302       C  0.88793854  0.94706354  0.59510560    -0.04900
Cl1303     Cl  0.01310092  0.50675020  0.63856041    -0.47900
C1304       C  0.86919617  0.52240772  0.69708095     0.44600
H1305       H  0.56078182  0.87341164  0.59361955     0.08800
N1306       N  0.90253771  0.54766626  0.58067233    -0.44600
C1307       C  0.63852268  0.50070338  0.28559337     0.44500
N1308       N  0.59567676  0.51854158  0.32042329     0.03400
C1309       C  0.95111543  0.87424497  0.41360483    -0.04500
H1310       H  0.93043276  0.84868392  0.30242307     0.08900
C1311       C  0.88003688  0.53302735  0.30964769    -0.04900
Co1312     Co  0.54528925  0.92697003  0.36350751     0.74200
N1313       N  0.97223396  0.89169795  0.32743429    -0.24000
Co1314     Co  0.93126351  0.92621971  0.35719917     0.74100
C1315       C  0.85895896  0.49101787  0.30221367     0.44600
N1316       N  0.98536324  0.58762335  0.32041839     0.03000
N1317       N  0.89573217  0.95987957  0.32487771     0.03100
N1318       N  0.52178134  0.87473812  0.41825218    -0.44900
H1319       H  0.61789055  0.91405424  0.30769800     0.08900
N1320       N  0.51470413  0.89219296  0.33074948     0.03400
N1321       N  0.89312488  0.96165042  0.38777006     0.03100
C1322       C  0.88412117  0.51921409  0.42873686     0.44700
N1323       N  0.52630963  0.58979606  0.32186630    -0.23500
C1324       C  0.59897721  0.94648417  0.41820597    -0.04400
N1325       N  0.62260769  0.53529917  0.30135785    -0.44600
N1326       N  0.87062264  0.94480981  0.40922123    -0.44800
C1327       C  0.63662560  0.49270298  0.41920164     0.44500
N1328       N  0.50801934  0.89265746  0.39363558     0.03400
N1329       N  0.53039142  0.59014450  0.38534121    -0.23500
N1330       N  0.58142916  0.96278730  0.33353421    -0.24000
N1331       N  0.99330277  0.59819873  0.38346915     0.03000
H1332       H  0.58175600  0.61523045  0.41304092     0.08900
H1333       H  0.89375728  0.58999106  0.41309994     0.08900
N1334       N  0.96628764  0.89434131  0.39025917    -0.24100
N1335       N  0.91268625  0.52180913  0.32835419    -0.23700
N1336       N  0.59773888  0.51631573  0.38354657     0.03400
C1337       C  0.00608523  0.84243518  0.29795390     0.44800
C1338       C  0.53993271  0.61276789  0.29922082    -0.04900
N1339       N  0.92270038  0.53378096  0.39021322    -0.23700
H1340       H  0.86968218  0.56652780  0.30421092     0.08900
N1341       N  0.53558411  0.86350606  0.31348853    -0.44900
H1342       H  0.57381554  0.61743350  0.29323517     0.08900
C1343       C  0.50894553  0.63095652  0.42323058     0.44600
C1344       C  0.60946541  0.94836549  0.31281820    -0.04400
Co1345     Co  0.56325771  0.55450877  0.35285741     0.73800
N1346       N  0.96734284  0.61335341  0.30028313    -0.44600
C1347       C  0.48617102  0.85978209  0.43238300     0.44900
N1348       N  0.62144882  0.53000205  0.40602241    -0.44600
Co1349     Co  0.95292585  0.56111589  0.35536237     0.73900
C1350       C  0.89994158  0.55457549  0.41117504    -0.04900
C1351       C  0.96295680  0.86043423  0.30744268    -0.04500
N1352       N  0.57483567  0.96224999  0.39623078    -0.24000
N1353       N  0.86604333  0.94177321  0.30758401    -0.44800
H1354       H  0.91667342  0.87046749  0.41850597     0.08900
C1355       C  0.54709830  0.61229363  0.40798979    -0.04900
Cl1356     Cl  0.00803649  0.49938061  0.35650918    -0.47900
C1357       C  0.00081204  0.62594024  0.28359260     0.44600
H1358       H  0.60683824  0.91188097  0.42214846     0.08800
N1359       N  0.98083862  0.62505484  0.40524880    -0.44600
C1360       C  0.50854197  0.78976878  0.51982015     0.04300
C1361       C  0.49235792  0.80112667  0.49209557     0.04300
C1362       C  0.48214654  0.76639801  0.47262037    -0.16200
C1363       C  0.48585412  0.72124000  0.48108155     0.04300
C1364       C  0.49948821  0.71097951  0.50982086     0.04300
C1365       C  0.51215043  0.74575898  0.52810447    -0.16200
H1366       H  0.52150616  0.73911451  0.55032601     0.06300
H1367       H  0.47002900  0.77428252  0.45119176     0.06300
C1368       C  0.78031125  0.00846337  0.48886692     0.04300
C1369       C  0.78276745  0.00731353  0.51924520     0.04300
C1370       C  0.74356085  0.00743569  0.53522692    -0.16200
C1371       C  0.70199708  0.00997384  0.52165787     0.04300
C1372       C  0.69966345  0.01235372  0.49129485     0.04300
C1373       C  0.73886728  0.01128600  0.47537054    -0.16200
H1374       H  0.73711861  0.01312434  0.45200502     0.06300
H1375       H  0.74543732  0.00693758  0.55862259     0.06300
C1376       C  0.49613890  0.74135546  0.24638404    -0.00500
C1377       C  0.99062112  0.78550398  0.26076250    -0.14400
C1378       C  0.01586576  0.79994724  0.28265630    -0.29600
H1379       H  0.96330796  0.80717652  0.25387741     0.14600
H1380       H  0.54317393  0.78143384  0.28895331     0.15200
C1381       C  0.99334946  0.70332355  0.26827891    -0.14400
C1382       C  0.99728060  0.65989216  0.26124246    -0.29600
H1383       H  0.47974243  0.71498319  0.29035106     0.14600
H1384       H  0.00242130  0.64936004  0.23899135     0.15200
C1385       C  0.51067997  0.65868694  0.44995135    -0.14400
C1386       C  0.47768980  0.68638508  0.45872572    -0.29600
H1387       H  0.05506657  0.66954503  0.45410042     0.14600
H1388       H  0.44755201  0.68885127  0.44594827     0.15200
C1389       C  0.47983726  0.87324748  0.46264919    -0.14400
C1390       C  0.48114040  0.84913807  0.48682639    -0.29600
H1391       H  0.47136436  0.90836041  0.46557327     0.14600
H1392       H  0.98565292  0.87456657  0.50681991     0.15200
C1393       C  0.65728813  0.01357899  0.47512781    -0.14400
C1394       C  0.65162514  0.98468566  0.45325071    -0.29600
H1395       H  0.65174225  0.54503820  0.46730721     0.14600
H1396       H  0.67627808  0.95830605  0.44959161     0.15200
C1397       C  0.81972588  0.00655406  0.47019002    -0.14400
C1398       C  0.82305040  0.97615567  0.44870724    -0.29600
H1399       H  0.84406882  0.03202457  0.47265730     0.14600
H1400       H  0.82806466  0.55544453  0.44793017     0.15200
C1401       C  0.65694752  0.98175792  0.56093525    -0.14400
C1402       C  0.66210641  0.01148497  0.53996012    -0.29600
H1403       H  0.67932088  0.95303211  0.56236834     0.14600
H1404       H  0.65178842  0.54164539  0.52641433     0.15200
C1405       C  0.82517900  0.00758632  0.53523178    -0.14400
C1406       C  0.83444958  0.97694138  0.55528047    -0.29600
H1407       H  0.84081107  0.44981197  0.53759126     0.14600
H1408       H  0.81385146  0.94824955  0.55690619     0.15200
C1409       C  0.52435050  0.65321787  0.54397823    -0.14400
C1410       C  0.49441367  0.66694797  0.52394011    -0.29600
H1411       H  0.55648099  0.66818006  0.54412005     0.14600
H1412       H  0.97730380  0.65604182  0.51578915     0.15200
C1413       C  0.48210876  0.83659585  0.55942808    -0.14400
C1414       C  0.51594613  0.82324394  0.54272749    -0.29600
H1415       H  0.98018896  0.80719695  0.56596487     0.14600
H1416       H  0.54883385  0.83564246  0.54615208     0.15200
C1417       C  0.56116808  0.76584078  0.21758405    -0.14400
C1418       C  0.54330155  0.73620596  0.23492758    -0.29600
H1419       H  0.54268874  0.79610957  0.21227776     0.14600
H1420       H  0.56368174  0.70758095  0.24119081     0.15200
C1421       C  0.91777451  0.74046851  0.22982364    -0.14400
C1422       C  0.96079703  0.73529992  0.22327766    -0.29600
H1423       H  0.90766241  0.74699888  0.25197812     0.14600
H1424       H  0.96983019  0.73007634  0.20073502     0.15200
C1425       C  0.77503333  0.57702857  0.03216797    -0.14400
C1426       C  0.74157544  0.58363071  0.05082599    -0.29600
H1427       H  0.80207626  0.59975587  0.03149514     0.14600
H1428       H  0.71384439  0.56164736  0.05028170     0.15200
C1429       C  0.76624872  0.91870584  0.03296610    -0.14400
C1430       C  0.74077764  0.91594777  0.05618591    -0.29600
H1431       H  0.78765767  0.89085077  0.02639563     0.14600
H1432       H  0.71640200  0.94214877  0.06101907     0.15200
C1433       C  0.77949063  0.57188355  0.96713497    -0.14400
C1434       C  0.74962527  0.57719255  0.94581257    -0.29600
H1435       H  0.80525001  0.59570416  0.97036198     0.14600
H1436       H  0.72206223  0.55508367  0.94438187     0.15200
C1437       C  0.75341484  0.91594542  0.96925844    -0.14400
C1438       C  0.77440245  0.90723931  0.94447841    -0.29600
H1439       H  0.72951374  0.89318395  0.97732854     0.14600
H1440       H  0.80121039  0.92798563  0.93811287     0.15200
C1441       C  0.02478495  0.69691479  0.71200574    -0.14400
C1442       C  0.99608611  0.70728779  0.73316952    -0.29600
H1443       H  0.55465322  0.67691294  0.74031178     0.14600
H1444       H  0.97104308  0.68322572  0.73723678     0.15200
C1445       C  0.98960966  0.79116196  0.73268606    -0.14400
C1446       C  0.01875494  0.82415295  0.73062262    -0.29600
H1447       H  0.53126577  0.81688884  0.74567707     0.14600
H1448       H  0.05071672  0.82104666  0.74114504     0.15200
C1449       C  0.57868782  0.75150658  0.76995435    -0.14400
C1450       C  0.53609808  0.74339193  0.77520755    -0.29600
H1451       H  0.58867384  0.76352348  0.74909467     0.14600
H1452       H  0.52773982  0.73320121  0.79690462     0.15200
C1453       C  0.95770510  0.74903564  0.77276589    -0.14400
C1454       C  0.91650258  0.73791349  0.76478598    -0.29600
H1455       H  0.96361318  0.75648056  0.79553934     0.14600
H1456       H  0.90889304  0.72900006  0.74253893     0.15200
C1457       C  0.80453956  0.49305890  0.72284511    -0.14400
C1458       C  0.83112074  0.52737189  0.71726428    -0.29600
H1459       H  0.80985242  0.95770748  0.74513393     0.14600
H1460       H  0.82452306  0.55982477  0.72705145     0.15200
C1461       C  0.72369212  0.50137678  0.72362721    -0.14400
C1462       C  0.69021662  0.47356572  0.71976626    -0.29600
H1463       H  0.71333136  0.98529775  0.70809782     0.14600
H1464       H  0.69179637  0.44090372  0.72919185     0.15200
C1465       C  0.73594344  0.56347610  0.77043706    -0.14400
C1466       C  0.76808153  0.53235568  0.76522775    -0.29600
H1467       H  0.70370137  0.56120303  0.76035671     0.14600
H1468       H  0.79868657  0.53393898  0.77751034     0.15200
C1469       C  0.73808079  0.95428341  0.77546341    -0.14400
C1470       C  0.74404250  0.91087256  0.76889325    -0.29600
H1471       H  0.73147329  0.96362080  0.79785409     0.14600
H1472       H  0.75255262  0.90036244  0.74705656     0.15200
C1473       C  0.58102055  0.78184668  0.03350213    -0.14400
C1474       C  0.58321055  0.74940262  0.05302135    -0.29600
H1475       H  0.60724175  0.80539268  0.03194330     0.14600
H1476       H  0.55839088  0.72417744  0.05293110     0.15200
C1477       C  0.91698298  0.75634206  0.02927371    -0.14400
C1478       C  0.90933022  0.72747791  0.05037550    -0.29600
H1479       H  0.89403167  0.78395408  0.02525776     0.14600
H1480       H  0.93098489  0.69833733  0.05272012     0.15200
C1481       C  0.59109057  0.74895055  0.95167285    -0.14400
C1482       C  0.58412426  0.78521567  0.96846835    -0.29600
H1483       H  0.56939182  0.72114703  0.95358166     0.14600
H1484       H  0.60614319  0.81287201  0.96762549     0.15200
C1485       C  0.92084599  0.75697945  0.96420443    -0.14400
C1486       C  0.91570137  0.72701108  0.94290084    -0.29600
H1487       H  0.89761249  0.78480921  0.96699334     0.14600
H1488       H  0.93749897  0.69775100  0.94174789     0.15200
C1489       C  0.81566312  0.48354616  0.28844923    -0.14400
C1490       C  0.79879316  0.50985805  0.26783493    -0.29600
H1491       H  0.78393861  0.93769546  0.28317955     0.14600
H1492       H  0.81841190  0.53737383  0.26097779     0.15200
C1493       C  0.71622760  0.50998459  0.27337736    -0.14400
C1494       C  0.67438968  0.50293607  0.26480711    -0.29600
H1495       H  0.72286722  0.51865105  0.29582477     0.14600
H1496       H  0.64046127  0.99346071  0.25353698     0.15200
C1497       C  0.74986592  0.53422333  0.22777476    -0.14400
C1498       C  0.74835276  0.57848152  0.23258838    -0.29600
H1499       H  0.74880218  0.52154598  0.20568145     0.14600
H1500       H  0.74944954  0.59162756  0.25453387     0.15200
C1501       C  0.72661487  0.95709858  0.23256295    -0.14400
C1502       C  0.76023230  0.93110339  0.22227813    -0.29600
H1503       H  0.69343456  0.94971498  0.22544400     0.14600
H1504       H  0.79405962  0.93910897  0.22716036     0.15200
loop_ 
_geom_bond_atom_site_label_1 
_geom_bond_atom_site_label_2 
_geom_bond_distance 
_geom_bond_site_symmetry_2 
_ccdc_geom_bond_type 
C1          C373   1.549       .  S
C1          C738   1.546       .  S
C1          C741   1.531       .  S
C1          C745   1.532       .  S
C2            C3   1.404   1_554  A
C2          C759   1.399       .  A
C2          C349   1.480       .  S
C3          C756   1.405       .  A
C3          C357   1.478       .  S
C4            C5   1.402   1_655  A
C4          C755   1.402       .  A
C4            H9   1.084       .  S
C5            C6   1.408   1_556  A
C5          C354   1.473       .  S
C6            C7   1.403   1_455  A
C6          C345   1.484       .  S
C7          C754   1.403       .  A
C7            H8   1.084       .  S
C10         C329   1.538       .  S
C10         C333   1.542       .  S
C10         C338   1.537   1_565  S
C10         C717   1.536       .  S
C11         C322   1.534   1_655  S
C11        C1066   1.552   1_655  S
C11        C1069   1.533   1_655  S
C11        C1077   1.546       .  S
C12          C13   1.408   1_556  A
C12          C17   1.404       .  A
C12         C309   1.469       .  S
C13          C14   1.402       .  A
C13         C301   1.490       .  S
C14         C391   1.406       .  A
C14          H19   1.084       .  S
C15          C16   1.408   1_554  A
C15         C390   1.399   1_545  A
C15         C297   1.483       .  S
C16         C393   1.406   1_545  A
C16         C305   1.472       .  S
C17         C392   1.404       .  A
C17          H18   1.084       .  S
C20         C358   1.464       .  S
C20          N38   1.342       .  A
C20          C57   1.465       .  S
N21          N38   1.320       .  A
N21          N43   1.317       .  A
N21         Co58   2.058       .  S
C22          H67   1.081       .  S
C22          N47   1.342       .  A
C22          C60   1.458       .  S
H23          C64   1.081       .  S
C24          H53   1.082       .  S
C24          N48   1.340       .  A
C24          C28   1.452       .  S
Co25         N43   2.095       .  S
Co25         N33   2.064       .  S
Co25         N65   2.085       .  S
Co25         N41   2.105       .  S
Co25        Cl69   2.454       .  S
N26          C64   1.345       .  A
N26          N33   1.319       .  A
N26         Co27   2.093       .  S
Co27         N30   2.083       .  S
Co27         N47   2.093       .  S
Co27         N34   2.105       .  S
Co27        Cl69   2.451       .  S
C28         C353   1.466       .  S
C28          N66   1.350       .  A
N29          N36   1.318       .  A
N29          N59   1.319       .  A
N29         Co62   2.061       .  S
N30          N48   1.319       .  A
N30          N66   1.326       .  A
N31          C60   1.354       .  A
N31          N41   1.329       .  A
H32          C57   1.082       .  S
N33          N54   1.320       .  A
N34          N52   1.323       .  A
N34          N39   1.327       .  A
C35         C321   1.472       .  S
C35          N39   1.351       .  A
C35          C63   1.455       .  S
N36          C51   1.343       .  A
N36         Co58   2.084       .  S
C37          H71   1.082       .  S
C37          N65   1.341       .  A
C37          C40   1.457       .  S
C40         C326   1.465       .  S
C40          N61   1.347       .  A
N41          N47   1.323       .  A
N42          C68   1.337       .  A
N42          N44   1.321       .  A
N42         Co58   2.071       .  S
N43          C57   1.346       .  A
N44          N72   1.328       .  A
N44         Co62   2.097       .  S
H45          C68   1.081       .  S
H46          C63   1.082       .  S
N48         Co62   2.082       .  S
N49          N61   1.324       .  A
N49          N65   1.322       .  A
N49         Co58   2.085       .  S
C50         C310   1.467       .  S
C50          N54   1.345       .  A
C50          C64   1.461       .  S
C51          H55   1.081       .  S
C51          C70   1.460       .  S
N52          C63   1.342       .  A
N52         Co62   2.083       .  S
C56         C337   1.474       .  S
C56          N72   1.354       .  A
C56          C68   1.450       .  S
Co58        Cl69   2.442       .  S
N59          C70   1.341       .  A
C60         C342   1.484       .  S
Co62        Cl69   2.455       .  S
C70         C306   1.456       .  S
C73         C374   1.486       .  S
C73          N91   1.357       .  A
C73         C110   1.455       .  S
N74          N91   1.332       .  A
N74          N96   1.324       .  A
N74        Co111   2.120       .  S
C75         H120   1.082       .  S
C75         N100   1.346       .  A
C75         C113   1.464       .  S
H76         C117   1.081       .  S
C77         H106   1.082       .  S
C77         N101   1.336       .  A
C77          C81   1.452       .  S
Co78         N96   2.087       .  S
Co78         N86   2.091       .  S
Co78        N118   2.078       .  S
Co78         N94   2.080       .  S
Co78       Cl122   2.444       .  S
N79         C117   1.349       .  A
N79          N86   1.324       .  A
N79         Co80   2.119       .  S
Co80         N83   2.114       .  S
Co80        N100   2.092       .  S
Co80         N87   2.096       .  S
Co80       Cl122   2.478       .  S
C81         C370   1.480       .  S
C81         N119   1.357       .  A
N82          N89   1.324       .  A
N82         N112   1.327       .  A
N82        Co115   2.090       .  S
N83         N101   1.324       .  A
N83         N119   1.333       .  A
N84         C113   1.345       .  A
N84          N94   1.322       .  A
H85         C110   1.082       .  S
N86         N107   1.326       .  A
N87         N105   1.319       .  A
N87          N92   1.327       .  A
C88         C298   1.472       .  S
C88          N92   1.352       .  A
C88         C116   1.455       .  S
N89         C104   1.351       .  A
N89        Co111   2.127       .  S
C90         H124   1.081       .  S
C90         N118   1.339       .  A
C90          C93   1.452       .  S
C93         C302   1.474       .  S
C93         N114   1.354       .  A
N94         N100   1.320       .  A
N95         C121   1.342       .  A
N95          N97   1.318       .  A
N95        Co111   2.087       .  S
N96         C110   1.341       .  A
N97         N125   1.325       .  A
N97        Co115   2.081       .  S
H98         C121   1.081       .  S
H99         C116   1.081       .  S
N101       Co115   2.089       .  S
N102        N114   1.330       .  A
N102        N118   1.319       .  A
N102       Co111   2.102       .  S
C103        C289   1.489       .  S
C103        N107   1.348       .  A
C103        C117   1.470       .  S
C104        H108   1.081       .  S
C104        C123   1.475       .  S
N105        C116   1.339       .  A
N105       Co115   2.073       .  S
C109        C350   1.473       .  S
C109        N125   1.349       .  A
C109        C121   1.460       .  S
Co111      Cl122   2.470       .  S
N112        C123   1.348       .  A
C113        C346   1.468       .  S
Co115      Cl122   2.442       .  S
C123        C293   1.495       .  S
C126        C318   1.470       .  S
C126        N144   1.356       .  A
C126        C915   1.447       .  S
N127        N144   1.330       .  A
N127        N901   1.321       .  A
N127       Co164   2.103       .  S
C128        H173   1.081       .  S
C128        N153   1.343       .  A
C128        C166   1.456       .  S
H129        C170   1.082       .  S
C130        H159   1.082       .  S
C130        N154   1.353       .  A
C130        C134   1.475       .  S
Co131       N149   2.101       .  S
Co131       N139   2.126       .  S
Co131       N171   2.092       .  S
Co131       N147   2.061       .  S
Co131     Cl1303   2.478       .  S
N132        C170   1.342       .  A
N132        N515   1.323   1_545  A
N132       Co133   2.094       .  S
Co133       N136   2.107       .  S
Co133       N153   2.082       .  S
Co133       N140   2.061       .  S
Co133      Cl927   2.457   1_455  S
C134        C313   1.490       .  S
C134        N924   1.346       .  A
N135        N165   1.329       .  A
N135        N518   1.324   1_545  A
N135       Co168   2.111       .  S
N136        N172   1.331       .  A
N136        N906   1.323   1_455  A
N137        C542   1.341       .  A
N137        N147   1.320       .  A
H138        C163   1.082       .  S
N139        N160   1.335       .  A
N139        N508   1.324       .  A
N140        N145   1.318       .  A
N140        N910   1.317   1_455  A
C141        C281   1.461       .  S
C141        N145   1.341   1_655  A
C141        C921   1.466       .  S
N142        C157   1.341       .  A
N142        N511   1.325       .  A
N142       Co164   2.081       .  S
C143        H177   1.081       .  S
C143        N171   1.342       .  A
C143        C146   1.456       .  S
C146        C285   1.468       .  S
C146        N919   1.348   1_455  A
N147        N529   1.319       .  A
N148        C174   1.338       .  A
N148        N526   1.319       .  A
N148       Co164   2.079       .  S
N149        C163   1.348       .  A
N149        N879   1.323   1_455  A
N150        N178   1.330       .  A
N150        N524   1.319   1_545  A
N150       Co168   2.105       .  S
H151        C174   1.080       .  S
H152        C169   1.082       .  S
N153        N523   1.319   1_545  A
N154        N888   1.324       .  A
N154       Co168   2.130       .  S
N155        N167   1.320       .  A
N155        N923   1.316       .  A
N155       Co164   2.060       .  S
C156        C334   1.481       .  S
C156        N536   1.351   1_545  A
C156        C170   1.460       .  S
C157        H161   1.082       .  S
C157        C552   1.456       .  S
N158        C169   1.344       .  A
N158        N892   1.319       .  A
N158       Co168   2.088       .  S
N160        C532   1.361       .  A
C162        C654   1.468       .  S
C162        N178   1.356       .  A
C162        C550   1.450   1_545  S
C163        C878   1.470   1_455  S
Co164      Cl551   2.450       .  S
N165        C176   1.354       .  A
C166        C649   1.471       .  S
C166        N513   1.351   1_545  A
N167        C898   1.341       .  A
Co168      Cl175   2.473       .  S
C169        C893   1.462       .  S
N171        N907   1.320   1_455  A
N172        C886   1.356   1_455  A
C174        C538   1.453       .  S
Cl175     Co1259   2.465   1_545  S
Cl175      Co885   2.440       .  S
Cl175      Co540   2.441   1_545  S
C176        C330   1.485       .  S
C176        C533   1.459   1_545  S
C179        C366   1.476       .  S
C179        N197   1.350   1_565  A
C179        C592   1.459       .  S
N180        N197   1.327       .  A
N180        N578   1.323   1_545  A
N180       Co217   2.098       .  S
C181        H226   1.081       .  S
C181        N206   1.343       .  A
C181        C971   1.461       .  S
H182        C223   1.082       .  S
C183        H212   1.081       .  S
C183        N207   1.345       .  A
C183        C187   1.465   1_545  S
Co184       N202   2.088       .  S
Co184       N192   2.097       .  S
Co184       N224   2.085       .  S
Co184       N200   2.087       .  S
Co184     Cl1356   2.460       .  S
N185        C223   1.343       .  A
N185        N944   1.322       .  A
N185       Co186   2.102       .  S
Co186       N189   2.086       .  S
Co186       N206   2.084       .  S
Co186       N193   2.096       .  S
Co186      Cl604   2.439       .  S
C187        C361   1.481       .  S
C187        N601   1.348       .  A
N188        N218   1.327       .  A
N188        N947   1.323       .  A
N188       Co221   2.094       .  S
N189        N225   1.324       .  A
N189        N583   1.323       .  A
N190        C219   1.352       .  A
N190        N200   1.326       .  A
H191        C216   1.081       .  S
N192        N213   1.329       .  A
N192        N937   1.322   1_455  A
N193        N198   1.326       .  A
N193        N587   1.319       .  A
C194        C646   1.474       .  S
C194        N574   1.354       .  A
C194        C222   1.451   1_565  S
N195        C210   1.345       .  A
N195        N940   1.323   1_455  A
N195       Co217   2.109       .  S
C196        H230   1.081       .  S
C196        N224   1.340       .  A
C196        C575   1.458       .  S
N198        C570   1.352       .  A
C199        C642   1.472       .  S
C199        N220   1.356   1_565  A
C199        C572   1.450       .  S
N200        N958   1.316   1_455  A
N201        C227   1.343   1_655  A
N201        N955   1.319       .  A
N201       Co217   2.082   1_655  S
N202        C216   1.342       .  A
N202        N556   1.322       .  A
N203        N231   1.324       .  A
N203        N953   1.318       .  A
N203       Co221   2.086       .  S
H204        C227   1.081       .  S
H205        C222   1.081       .  S
N206        N952   1.318       .  A
N207        N565   1.323   1_545  A
N207       Co221   2.099       .  S
N208        N220   1.331       .  A
N208        N600   1.318   1_545  A
N208       Co217   2.104       .  S
C209        C250   1.474       .  S
C209        N965   1.349       .  A
C209        C223   1.459       .  S
C210        H214   1.081       .  S
C210        C981   1.466   1_455  S
N211        C222   1.337       .  A
N211        N569   1.321   1_545  A
N211       Co221   2.073       .  S
N213        C961   1.352   1_455  A
C215        C257   1.466       .  S
C215        N983   1.345       .  A
C215        C227   1.462   1_655  S
C216        C555   1.455       .  S
Co217      Cl980   2.461   1_445  S
N218        C229   1.351       .  A
C219        C261   1.469       .  S
C219        C933   1.456   1_455  S
Co221      Cl228   2.444   1_545  S
N224        N584   1.320       .  A
N225        C563   1.346       .  A
Cl228     Co1312   2.444       .  S
Cl228      Co562   2.470       .  S
Cl228      Co969   2.465   1_565  S
C229        C254   1.497       .  S
C229        C962   1.473       .  S
N231        C967   1.347       .  A
C232        C233   1.406       .  A
C232        C237   1.397       .  A
C232        C286   1.474       .  S
C233        C234   1.406       .  A
C233        C262   1.477       .  S
C234        C235   1.405       .  A
C234        H239   1.084       .  S
C235        C236   1.407       .  A
C235        C258   1.476       .  S
C236        C237   1.401       .  A
C236        C282   1.478       .  S
C237        H238   1.085       .  S
C240        C241   1.402       .  A
C240        C245   1.400       .  A
C240        C269   1.469       .  S
C241        C242   1.397       .  A
C241        C277   1.470       .  S
C242        C243   1.398       .  A
C242        H247   1.085       .  S
C243        C244   1.403       .  A
C243        C274   1.471       .  S
C244        C245   1.400       .  A
C244        C265   1.471       .  S
C245        H246   1.085       .  S
C248        C290   1.542   1_655  S
C248       C1001   1.545   1_655  S
C248       C1005   1.536   1_655  S
C248       C1046   1.542       .  S
C249       C1000   1.540       .  S
C249        C250   1.352       .  D
C249        H251   1.088       .  S
C250       H1004   1.086       .  S
H252       C1002   1.085       .  S
C253       C1000   1.546       .  S
C253        C254   1.353       .  D
C253       H1007   1.088       .  S
C254        H256   1.084       .  S
H255       C1005   1.088       .  S
C257        C258   1.337       .  D
C257       H1011   1.088       .  S
C258        H260   1.088   1_655  S
H259       C1009   1.088       .  S
C261        C262   1.343   1_455  D
C261        H263   1.086       .  S
C262       H1016   1.086       .  S
H264       C1014   1.086       .  S
C265        C266   1.338       .  D
C265        H643   1.087       .  S
C266        C575   1.460       .  S
C266        H268   1.087       .  S
H267        C641   1.086       .  S
C269        C270   1.335       .  D
C269        H271   1.086       .  S
C270        C570   1.456       .  S
C270        H648   1.087       .  S
H272        C646   1.087       .  S
C273        C542   1.457       .  S
C273        C274   1.336       .  D
C273        H275   1.087       .  S
C274        H652   1.086       .  S
H276        C650   1.086       .  S
C277        C278   1.341       .  D
C277        H655   1.087       .  S
C278        C538   1.459       .  S
C278        H280   1.088       .  S
H279        C653   1.086       .  S
C281        C282   1.337       .  D
C281        H283   1.087   1_655  S
C282       H1036   1.086       .  S
H284       C1034   1.087       .  S
C285        C286   1.342   1_455  D
C285       H1039   1.087       .  S
C286        H288   1.086       .  S
H287       C1037   1.088       .  S
C289        C290   1.352       .  D
C289        H291   1.083       .  S
C290        H292   1.087       .  S
C293        C294   1.347       .  D
C293        H295   1.086       .  S
C294       C1000   1.550       .  S
C294        H296   1.088       .  S
C297        C298   1.347       .  D
C297        H299   1.087       .  S
C298        H300   1.087       .  S
C301        C302   1.344       .  D
C301        H303   1.086       .  S
C302        H304   1.086       .  S
C305        C306   1.337       .  D
C305        H307   1.086       .  S
C306        H308   1.088       .  S
C309        C310   1.344       .  D
C309        H311   1.086       .  S
C310        H312   1.087       .  S
C313        C314   1.349       .  D
C313       H1067   1.082       .  S
C314        C763   1.548       .  S
C314        H316   1.086       .  S
H315       C1065   1.083       .  S
C317        C763   1.531       .  S
C317        C318   1.340       .  D
C317       H1071   1.088       .  S
C318        H320   1.087       .  S
H319       C1069   1.088       .  S
C321        C322   1.349       .  D
C321        H323   1.085       .  S
C322        H324   1.088       .  S
C325        C763   1.525       .  S
C325        C326   1.346       .  D
C325        H327   1.088       .  S
C326        H328   1.085       .  S
C329        C330   1.350   1_565  D
C329        H707   1.088       .  S
C330        H332   1.086       .  S
H331        C705   1.088       .  S
C333        C334   1.355   1_565  D
C333        H711   1.088       .  S
C334        H336   1.084       .  S
H335        C709   1.088       .  S
C337        C338   1.346       .  D
C337        H339   1.081       .  S
C338        H340   1.087       .  S
C341        C386   1.538       .  S
C341        C342   1.352       .  D
C341        H343   1.087       .  S
C342        H344   1.084       .  S
C345        C346   1.342       .  D
C345        H347   1.086       .  S
C346        H348   1.087       .  S
C349        C350   1.343       .  D
C349        H351   1.086       .  S
C350        H352   1.087       .  S
C353        C354   1.339       .  D
C353        H355   1.088       .  S
C354        H356   1.088       .  S
C357        C358   1.338       .  D
C357        H359   1.086       .  S
C358        H360   1.087       .  S
C361        C362   1.346   1_565  D
C361        H739   1.086       .  S
C362        C377   1.543       .  S
C362        H364   1.088       .  S
H363        C737   1.081       .  S
C365        C377   1.533   1_565  S
C365        C366   1.349       .  D
C365        H367   1.088       .  S
C366        H744   1.085   1_565  S
H368        C742   1.082       .  S
C369        C377   1.536       .  S
C369        C370   1.347       .  D
C369        H371   1.087       .  S
C370        H372   1.087       .  S
C373        C374   1.354       .  D
C373        H375   1.088       .  S
C374        H376   1.086       .  S
C377        C749   1.541   1_545  S
C378        C379   1.408   1_554  A
C378       C1135   1.400       .  A
C378        C725   1.484       .  S
C379       C1132   1.405       .  A
C379        C733   1.475       .  S
C380       C1131   1.404   1_455  A
C380        C381   1.400       .  A
C380        H385   1.086       .  S
C381        C382   1.408   1_556  A
C381        C730   1.480       .  S
C382        C383   1.405   1_455  A
C382        C721   1.477       .  S
C383       C1130   1.401       .  A
C383        H384   1.085       .  S
C386        C705   1.542       .  S
C386        C709   1.549       .  S
C386        C714   1.544       .  S
C387       C1442   1.540       .  S
C387       C1445   1.547       .  S
C387        C698   1.546   1_655  S
C387       C1453   1.532       .  S
C388        C389   1.404   1_556  A
C388        C393   1.396       .  A
C388        C685   1.477       .  S
C389        C390   1.404       .  A
C389        C677   1.469       .  S
C390        H395   1.084       .  S
C391        C392   1.409   1_554  A
C391        C673   1.470       .  S
C392        C681   1.495       .  S
C393        H394   1.084       .  S
C396        C734   1.462       .  S
C396        N414   1.346       .  A
C396        C433   1.458       .  S
N397        N414   1.322       .  A
N397        N419   1.319       .  A
N397       Co434   2.072       .  S
C398        H443   1.082       .  S
C398        N423   1.342       .  A
C398        C436   1.457       .  S
H399        C440   1.081       .  S
C400        H429   1.081       .  S
C400        N424   1.340       .  A
C400        C404   1.453       .  S
Co401       N419   2.081       .  S
Co401       N409   2.064       .  S
Co401       N441   2.082       .  S
Co401       N417   2.106       .  S
Co401      Cl445   2.449       .  S
N402        C440   1.348       .  A
N402        N409   1.319       .  A
N402       Co403   2.105       .  S
Co403       N406   2.084       .  S
Co403       N423   2.090       .  S
Co403       N410   2.115       .  S
Co403      Cl445   2.461       .  S
C404        C729   1.468       .  S
C404        N442   1.351       .  A
N405        N412   1.319       .  A
N405        N435   1.320       .  A
N405       Co438   2.063       .  S
N406        N424   1.319       .  A
N406        N442   1.326       .  A
N407        C436   1.354       .  A
N407        N417   1.328       .  A
H408        C433   1.082       .  S
N409        N430   1.322       .  A
N410        N428   1.323       .  A
N410        N415   1.330       .  A
C411        C697   1.484       .  S
C411        N415   1.356       .  A
C411        C439   1.455       .  S
N412        C427   1.351       .  A
N412       Co434   2.113       .  S
C413        H447   1.081       .  S
C413        N441   1.339       .  A
C413        C416   1.454       .  S
C416        C702   1.479       .  S
C416        N437   1.354       .  A
N417        N423   1.323       .  A
N418        C444   1.341       .  A
N418        N420   1.322       .  A
N418       Co434   2.090       .  S
N419        C433   1.341       .  A
N420        N448   1.328       .  A
N420       Co438   2.095       .  S
H421        C444   1.082       .  S
H422        C439   1.082       .  S
N424       Co438   2.083       .  S
N425        N437   1.328       .  A
N425        N441   1.324       .  A
N425       Co434   2.109       .  S
C426        C686   1.476       .  S
C426        N430   1.345       .  A
C426        C440   1.466       .  S
C427        H431   1.081       .  S
C427        C446   1.471       .  S
N428        C439   1.340       .  A
N428       Co438   2.081       .  S
C432        C713   1.481       .  S
C432        N448   1.353       .  A
C432        C444   1.457       .  S
Co434      Cl445   2.456       .  S
N435        C446   1.341       .  A
C436        C718   1.483       .  S
Co438      Cl445   2.451       .  S
C446        C682   1.473       .  S
C449        C750   1.480       .  S
C449        N467   1.349       .  A
C449        C486   1.464       .  S
N450        N467   1.325       .  A
N450        N472   1.320       .  A
N450       Co487   2.091       .  S
C451        H496   1.081       .  S
C451        N476   1.345       .  A
C451        C489   1.460       .  S
H452        C493   1.081       .  S
C453        H482   1.082       .  S
C453        N477   1.336       .  A
C453        C457   1.447       .  S
Co454       N472   2.086       .  S
Co454       N462   2.072       .  S
Co454       N494   2.064       .  S
Co454       N470   2.074       .  S
Co454      Cl498   2.445       .  S
N455        C493   1.350       .  A
N455        N462   1.324       .  A
N455       Co456   2.124       .  S
Co456       N459   2.116       .  S
Co456       N476   2.085       .  S
Co456       N463   2.094       .  S
Co456      Cl498   2.466       .  S
C457        C746   1.480       .  S
C457        N495   1.359       .  A
N458        N465   1.322       .  A
N458        N488   1.324       .  A
N458       Co491   2.072       .  S
N459        N477   1.324       .  A
N459        N495   1.332       .  A
N460        C489   1.342       .  A
N460        N470   1.321       .  A
H461        C486   1.081       .  S
N462        N483   1.322       .  A
N463        N481   1.319       .  A
N463        N468   1.325       .  A
C464        C674   1.463       .  S
C464        N468   1.351       .  A
C464        C492   1.453       .  S
N465        C480   1.340       .  A
N465       Co487   2.090       .  S
C466        H500   1.081       .  S
C466        N494   1.337       .  A
C466        C469   1.447       .  S
C469        C678   1.456       .  S
C469        N490   1.349       .  A
N470        N476   1.319       .  A
N471        C497   1.342       .  A
N471        N473   1.316       .  A
N471       Co487   2.080       .  S
N472        C486   1.344       .  A
N473        N501   1.325       .  A
N473       Co491   2.083       .  S
H474        C497   1.081       .  S
H475        C492   1.081       .  S
N477       Co491   2.079       .  S
N478        N490   1.323       .  A
N478        N494   1.318       .  A
N478       Co487   2.078       .  S
C479        C665   1.483       .  S
C479        N483   1.343       .  A
C479        C493   1.474       .  S
C480        H484   1.082       .  S
C480        C499   1.457       .  S
N481        C492   1.334       .  A
N481       Co491   2.058       .  S
C485        C726   1.474       .  S
C485        N501   1.351       .  A
C485        C497   1.460       .  S
Co487      Cl498   2.448       .  S
N488        C499   1.345       .  A
C489        C722   1.461       .  S
Co491      Cl498   2.442       .  S
C499        C669   1.460       .  S
C502        C694   1.484       .  S
C502        N520   1.350       .  A
C502       C1291   1.465       .  S
N503        N520   1.326       .  A
N503       N1277   1.323       .  A
N503       Co540   2.091       .  S
C504        H549   1.081       .  S
C504        N529   1.343       .  A
C504        C542   1.460       .  S
H505        C546   1.082       .  S
C506        H535   1.081       .  S
C506        N530   1.345       .  A
C506        C510   1.464       .  S
Co507       N525   2.099       .  S
Co507       N515   2.098       .  S
Co507       N547   2.094       .  S
Co507       N523   2.090       .  S
Co507      Cl927   2.451   1_465  S
N508        C546   1.335       .  A
N508       Co509   2.081       .  S
Co509       N512   2.089       .  S
Co509       N529   2.085       .  S
Co509       N516   2.076       .  S
Co509     Cl1303   2.435       .  S
C510        C689   1.485       .  S
C510       N1300   1.351       .  A
N511        N541   1.331       .  A
N511       Co544   2.130       .  S
N512       N1282   1.322   1_455  A
N512        N548   1.326       .  A
N513        N523   1.326       .  A
H514        C539   1.082       .  S
N515        N536   1.327       .  A
N516       N1286   1.318   1_455  A
N516        N521   1.323       .  A
C517        C657   1.482       .  S
C517        N521   1.347       .  A
C517       C1297   1.472   1_455  S
N518        C533   1.341       .  A
N518       Co540   2.089       .  S
C519        H553   1.081       .  S
C519        N547   1.347       .  A
C519        C522   1.464       .  S
C522        C661   1.468       .  S
C522       N1295   1.343   1_455  A
N524        C550   1.335       .  A
N524       Co540   2.072       .  S
N525        C539   1.339       .  A
N525       N1255   1.326   1_455  A
N526        N554   1.323       .  A
N526       Co544   2.069       .  S
H527        C550   1.081       .  S
H528        C545   1.081       .  S
N530       N1264   1.325       .  A
N530       Co544   2.105       .  S
N531        N543   1.322       .  A
N531       N1299   1.318       .  A
N531       Co540   2.076       .  S
C532        C710   1.484       .  S
C532        C546   1.446       .  S
C533        H537   1.082       .  S
N534        C545   1.354       .  A
N534       N1268   1.320       .  A
N534       Co544   2.113       .  S
C538        N554   1.346       .  A
C539       C1254   1.455       .  S
N541        C552   1.358       .  A
N543       C1274   1.346       .  A
Co544      Cl551   2.464       .  S
C545       C1269   1.471       .  S
N547       N1283   1.320   1_455  A
N548       C1262   1.348       .  A
Cl551      Co883   2.445       .  S
Cl551     Co1261   2.454       .  S
C552        C706   1.490       .  S
C555        C742   1.477       .  S
C555        N573   1.353       .  A
N556        N573   1.326       .  A
N556       Co593   2.095       .  S
C557        H602   1.082       .  S
C557        N582   1.337       .  A
C557       C1347   1.463       .  S
H558        C599   1.081       .  S
C559        H588   1.082       .  S
C559        N583   1.351       .  A
C559        C563   1.471       .  S
Co560       N578   2.099       .  S
Co560       N568   2.081       .  S
Co560       N600   2.069       .  S
Co560       N576   2.096       .  S
Co560      Cl980   2.450   1_455  S
N561        C599   1.346       .  A
N561       N1320   1.322       .  A
N561       Co562   2.107       .  S
Co562       N565   2.086       .  S
Co562       N582   2.077       .  S
Co562       N569   2.107       .  S
C563        C737   1.486       .  S
N564       N1323   1.322       .  A
N564        N594   1.325       .  A
N564       Co597   2.080       .  S
N565        N601   1.325       .  A
N566        C595   1.356   1_455  A
N566        N576   1.326       .  A
H567        C592   1.082       .  S
N568       N1313   1.322   1_455  A
N568        N589   1.323       .  A
N569        N574   1.329       .  A
C570        C598   1.444       .  S
N571        C586   1.340       .  A
N571       N1316   1.322   1_455  A
N571       Co593   2.092       .  S
C572        H606   1.081       .  S
C572        N600   1.335       .  A
C575        N596   1.344       .  A
N576       N1334   1.315   1_455  A
N577        C603   1.342       .  A
N577       N1331   1.320   1_455  A
N577       Co593   2.095       .  S
N578        C592   1.344       .  A
N579       N1329   1.319       .  A
N579        N607   1.332       .  A
N579       Co597   2.111       .  S
H580        C603   1.081       .  S
H581        C598   1.081       .  S
N582       N1328   1.314       .  A
N583       Co597   2.119       .  S
N584        N596   1.322       .  A
N584       Co593   2.072       .  S
C585        C626   1.468       .  S
C585       N1341   1.340       .  A
C585        C599   1.470       .  S
C586        H590   1.082       .  S
C586       C1357   1.457       .  S
N587        C598   1.332       .  A
N587       Co597   2.051       .  S
N589       C1337   1.345       .  A
C591        C633   1.491       .  S
C591       N1359   1.357   1_455  A
C591        C603   1.457       .  S
Co593     Cl1356   2.449       .  S
N594        C605   1.348       .  A
C595        C637   1.467       .  S
C595       C1309   1.463       .  S
Co597      Cl604   2.469       .  S
Cl604      Co936   2.457       .  S
Cl604     Co1345   2.444       .  S
C605        C630   1.465       .  S
C605       C1338   1.455       .  S
N607       C1343   1.356       .  A
C608        C609   1.416       .  A
C608        C613   1.394       .  A
C608        C662   1.487       .  S
C609        C610   1.415   1_455  A
C609        C638   1.498   1_455  S
C610        C611   1.420       .  A
C610        H615   1.081       .  S
C611        C612   1.423   1_655  A
C611        C634   1.495       .  S
C612        C613   1.404       .  A
C612        C658   1.499       .  S
C613        H614   1.084       .  S
C616        C617   1.411       .  A
C616        C621   1.405       .  A
C616        C645   1.482       .  S
C617        C618   1.404       .  A
C617        C653   1.487       .  S
C618        C619   1.403       .  A
C618        H623   1.085       .  S
C619        C620   1.411       .  A
C619        C650   1.484       .  S
C620        C621   1.408       .  A
C620        C641   1.487       .  S
C621        H622   1.085       .  S
C624       C1377   1.540       .  S
C624       C1381   1.527       .  S
C624        C666   1.542   1_655  S
C624       C1422   1.526       .  S
C625       C1376   1.528       .  S
C625        C626   1.335       .  D
C625        H627   1.088       .  S
C626       H1380   1.087       .  S
H628       C1378   1.086       .  S
C629       C1376   1.524       .  S
C629        C630   1.343       .  D
C629       H1383   1.088       .  S
C630        H632   1.085       .  S
H631       C1381   1.088       .  S
C633        C634   1.347   1_455  D
C633       H1387   1.087       .  S
C634        H636   1.086       .  S
H635       C1385   1.087       .  S
C637        C638   1.344       .  D
C637        H639   1.088       .  S
C638       H1392   1.086       .  S
H640       C1390   1.084       .  S
C641        C642   1.342   1_545  D
C642        H644   1.087       .  S
C645        C646   1.349   1_545  D
C645        H647   1.087       .  S
C649        C650   1.348       .  D
C649        H651   1.087   1_545  S
C653        C654   1.342       .  D
C654        H656   1.087   1_545  S
C657        C658   1.351       .  D
C657        H659   1.086       .  S
C658       H1412   1.085   1_455  S
H660       C1410   1.085       .  S
C661        C662   1.340       .  D
C661       H1415   1.087   1_455  S
C662        H664   1.086       .  S
H663       C1413   1.088       .  S
C665        C666   1.345       .  D
C665        H667   1.083       .  S
C666        H668   1.086       .  S
C669        C670   1.344       .  D
C669        H671   1.086       .  S
C670       C1376   1.521       .  S
C670        H672   1.089       .  S
C673        C674   1.342       .  D
C673        H675   1.087       .  S
C674        H676   1.088       .  S
C677        C678   1.337       .  D
C677        H679   1.086       .  S
C678        H680   1.086       .  S
C681        C682   1.343       .  D
C681        H683   1.086       .  S
C682        H684   1.087       .  S
C685        C686   1.347       .  D
C685        H687   1.086       .  S
C686        H688   1.086       .  S
C689        C690   1.353       .  D
C689       H1443   1.083       .  S
C690       C1139   1.537       .  S
C690        H692   1.087       .  S
H691       C1441   1.085       .  S
C693       C1139   1.542       .  S
C693        C694   1.347       .  D
C693       H1447   1.086       .  S
C694        H696   1.086       .  S
H695       C1445   1.087       .  S
C697        C698   1.349       .  D
C697        H699   1.085       .  S
C698        H700   1.089       .  S
C701       C1139   1.533       .  S
C701        C702   1.346       .  D
C701        H703   1.087       .  S
C702        H704   1.084       .  S
C705        C706   1.355       .  D
C706        H708   1.086       .  S
C709        C710   1.351       .  D
C710        H712   1.084       .  S
C713        C714   1.352       .  D
C713        H715   1.082       .  S
C714        H716   1.087       .  S
C717        C718   1.350       .  D
C717        H719   1.089       .  S
C718        H720   1.085       .  S
C721        C722   1.340       .  D
C721        H723   1.086       .  S
C722        H724   1.087       .  S
C725        C726   1.345       .  D
C725        H727   1.087       .  S
C726        H728   1.087       .  S
C729        C730   1.342       .  D
C729        H731   1.086       .  S
C730        H732   1.086       .  S
C733        C734   1.340       .  D
C733        H735   1.086       .  S
C734        H736   1.087       .  S
C737        C738   1.350       .  D
C738        H740   1.087       .  S
C741        C742   1.347       .  D
C741        H743   1.088       .  S
C745        C746   1.340       .  D
C745        H747   1.089       .  S
C746        H748   1.087       .  S
C749        C750   1.351       .  D
C749        H751   1.086       .  S
C750        H752   1.083       .  S
C753       C1490   1.533       .  S
C753       C1493   1.526       .  S
C753       C1497   1.527       .  S
C753       C1125   1.537       .  S
C754        C755   1.406   1_554  A
C754       C1101   1.475       .  S
C755       C1109   1.479       .  S
C756        C757   1.407       .  A
C756        H761   1.084       .  S
C757        C758   1.417   1_556  A
C757       C1106   1.495       .  S
C758        C759   1.409       .  A
C758       C1097   1.483       .  S
C759        H760   1.085       .  S
C762       C1081   1.546       .  S
C762       C1085   1.530       .  S
C762       C1090   1.543   1_565  S
C762       C1469   1.529       .  S
C763       C1074   1.547       .  S
C764        C765   1.418   1_556  A
C764        C769   1.408       .  A
C764       C1061   1.485       .  S
C765        C766   1.406       .  A
C765       C1053   1.494       .  S
C766       C1143   1.401       .  A
C766        H771   1.084       .  S
C767       C1142   1.400       .  A
C767        C768   1.405   1_554  A
C767       C1049   1.472       .  S
C768       C1145   1.402   1_545  A
C768       C1057   1.479       .  S
C769       C1144   1.402       .  A
C769        H770   1.085       .  S
C772       C1110   1.466       .  S
C772        N790   1.344       .  A
C772        C809   1.463       .  S
N773        N790   1.321       .  A
N773        N795   1.318       .  A
N773       Co810   2.063       .  S
C774        H819   1.082       .  S
C774        N799   1.346       .  A
C774        C812   1.465       .  S
H775        C816   1.081       .  S
C776        H805   1.081       .  S
C776        N800   1.340       .  A
C776        C780   1.454       .  S
Co777       N795   2.096       .  S
Co777       N785   2.092       .  S
Co777       N817   2.122       .  S
Co777       N793   2.127       .  S
Co777      Cl821   2.466       .  S
N778        C816   1.343       .  A
N778        N785   1.320       .  A
N778       Co779   2.093       .  S
Co779       N782   2.105       .  S
Co779       N799   2.117       .  S
Co779       N786   2.130       .  S
Co779      Cl821   2.457       .  S
C780       C1105   1.476       .  S
C780        N818   1.355       .  A
N781        N788   1.316       .  A
N781        N811   1.319       .  A
N781       Co814   2.054       .  S
N782        N800   1.319       .  A
N782        N818   1.330       .  A
N783        C812   1.358       .  A
N783        N793   1.334       .  A
H784        C809   1.081       .  S
N785        N806   1.327       .  A
N786        N804   1.324       .  A
N786        N791   1.332       .  A
C787       C1073   1.484       .  S
C787        N791   1.360       .  A
C787        C815   1.450       .  S
N788        C803   1.346       .  A
N788       Co810   2.088       .  S
C789        H823   1.081       .  S
C789        N817   1.353       .  A
C789        C792   1.476       .  S
C792       C1078   1.483       .  S
C792        N813   1.343       .  A
N793        N799   1.327       .  A
N794        C820   1.337       .  A
N794        N796   1.321       .  A
N794       Co810   2.076       .  S
N795        C809   1.345       .  A
N796        N824   1.331       .  A
N796       Co814   2.109       .  S
H797        C820   1.082       .  S
H798        C815   1.082       .  S
N800       Co814   2.085       .  S
N801        N813   1.321       .  A
N801        N817   1.323       .  A
N801       Co810   2.076       .  S
C802       C1062   1.474       .  S
C802        N806   1.350       .  A
C802        C816   1.458       .  S
C803        H807   1.081       .  S
C803        C822   1.464       .  S
N804        C815   1.337       .  A
N804       Co814   2.069       .  S
C808       C1089   1.481       .  S
C808        N824   1.358       .  A
C808        C820   1.450       .  S
Co810      Cl821   2.441       .  S
N811        C822   1.340       .  A
C812       C1094   1.501       .  S
Co814      Cl821   2.460       .  S
C822       C1058   1.460       .  S
C825       C1126   1.482       .  S
C825        N843   1.345       .  A
C825        C862   1.472       .  S
N826        N843   1.324       .  A
N826        N848   1.322       .  A
N826       Co863   2.077       .  S
C827        H872   1.081       .  S
C827        N852   1.345       .  A
C827        C865   1.462       .  S
H828        C869   1.082       .  S
C829        H858   1.082       .  S
C829        N853   1.336       .  A
C829        C833   1.453       .  S
Co830       N848   2.107       .  S
Co830       N838   2.105       .  S
Co830       N870   2.083       .  S
Co830       N846   2.082       .  S
Co830      Cl874   2.451       .  S
N831        C869   1.346       .  A
N831        N838   1.325       .  A
N831       Co832   2.104       .  S
Co832       N835   2.117       .  S
Co832       N852   2.093       .  S
Co832       N839   2.092       .  S
Co832      Cl874   2.467       .  S
C833       C1122   1.483       .  S
C833        N871   1.358       .  A
N834        N841   1.322       .  A
N834        N864   1.327       .  A
N834       Co867   2.094       .  S
N835        N853   1.324       .  A
N835        N871   1.334       .  A
N836        C865   1.345       .  A
N836        N846   1.323       .  A
H837        C862   1.082       .  S
N838        N859   1.327       .  A
N839        N857   1.318       .  A
N839        N844   1.327       .  A
C840       C1050   1.467       .  S
C840        N844   1.352       .  A
C840        C868   1.452       .  S
N841        C856   1.344       .  A
N841       Co863   2.103       .  S
C842        H876   1.081       .  S
C842        N870   1.339       .  A
C842        C845   1.453       .  S
C845       C1054   1.473       .  S
C845        N866   1.353       .  A
N846        N852   1.320       .  A
N847        C873   1.339       .  A
N847        N849   1.316       .  A
N847       Co863   2.067       .  S
N848        C862   1.345       .  A
N849        N877   1.324       .  A
N849       Co867   2.076       .  S
H850        C873   1.081       .  S
H851        C868   1.081       .  S
N853       Co867   2.090       .  S
N854        N866   1.330       .  A
N854        N870   1.318       .  A
N854       Co863   2.095       .  S
C855       C1041   1.486       .  S
C855        N859   1.352       .  A
C855        C869   1.462       .  S
C856        H860   1.081       .  S
C856        C875   1.465       .  S
N857        C868   1.336       .  A
N857       Co867   2.066       .  S
C861       C1102   1.463       .  S
C861        N877   1.347       .  A
C861        C873   1.456       .  S
Co863      Cl874   2.451       .  S
N864        C875   1.352       .  A
C865       C1098   1.469       .  S
Co867      Cl874   2.447       .  S
C875       C1045   1.486       .  S
C878       C1070   1.478       .  S
C878        N896   1.344       .  A
N879        N896   1.321       .  A
N879       Co916   2.084       .  S
C880        H925   1.082       .  S
C880        N905   1.341       .  A
C880        C918   1.457   1_545  S
H881        C922   1.081       .  S
C882        H911   1.081       .  S
C882        N906   1.345       .  A
C882        C886   1.463       .  S
Co883       N901   2.068       .  S
Co883       N891   2.083       .  S
Co883       N923   2.083       .  S
Co883       N899   2.062       .  S
N884        C922   1.341       .  A
N884       N1267   1.322   1_545  A
N884       Co885   2.092       .  S
Co885       N888   2.084       .  S
Co885       N905   2.080       .  S
Co885       N892   2.072       .  S
C886       C1065   1.495       .  S
N887       N1270   1.325   1_545  A
N887        N917   1.323       .  A
N887       Co920   2.089       .  S
N888        N924   1.323       .  A
N889       C1294   1.344       .  A
N889        N899   1.321       .  A
H890        C915   1.082       .  S
N891       N1260   1.323       .  A
N891        N912   1.324       .  A
N892        N897   1.322       .  A
C893       C1033   1.465       .  S
C893        N897   1.344       .  A
N894        C909   1.339       .  A
N894       N1263   1.322       .  A
N894       Co916   2.078       .  S
C895        H929   1.081       .  S
C895        N923   1.345       .  A
C895        C898   1.463       .  S
C898       C1037   1.461       .  S
N899       N1281   1.317       .  A
N900        C926   1.342       .  A
N900       N1278   1.318       .  A
N900       Co916   2.081       .  S
N901        C915   1.333       .  A
N902       N1276   1.319   1_545  A
N902        N930   1.326       .  A
N902       Co920   2.090       .  S
H903        C926   1.081       .  S
H904        C921   1.081       .  S
N905       N1275   1.319   1_545  A
N906       Co920   2.109       .  S
N907        N919   1.324       .  A
N907       Co916   2.075       .  S
C908       C1086   1.471       .  S
C908       N1288   1.349       .  A
C908        C922   1.457   1_565  S
C909        H913   1.081       .  S
C909       C1304   1.456       .  S
N910        C921   1.347       .  A
N910       Co920   2.087       .  S
N912       C1284   1.346       .  A
C914       C1406   1.470       .  S
C914        N930   1.352   1_565  A
C914       C1302   1.454       .  S
Co916     Cl1303   2.435   1_655  S
N917        C928   1.345       .  A
C918       C1401   1.471       .  S
C918       N1265   1.350       .  A
Co920      Cl927   2.450       .  S
C926       C1290   1.462       .  S
Cl927     Co1292   2.468   1_545  S
C928       C1082   1.485       .  S
C928       C1285   1.472   1_545  S
C931       C1118   1.480       .  S
C931        N949   1.351   1_565  A
C931       C1344   1.461       .  S
N932        N949   1.328       .  A
N932       N1330   1.323   1_545  A
N932       Co969   2.095       .  S
C933        H978   1.082       .  S
C933        N958   1.336       .  A
H934        C975   1.081       .  S
C935        H964   1.082       .  S
C935        N959   1.345       .  A
C935        C939   1.465   1_545  S
Co936       N954   2.088       .  S
Co936       N944   2.084       .  S
Co936       N976   2.064       .  S
Co936       N952   2.077       .  S
N937        C975   1.346       .  A
N937       Co938   2.111       .  S
Co938       N941   2.065       .  S
Co938       N958   2.066       .  S
Co938       N945   2.090       .  S
Co938     Cl1356   2.440   1_655  S
C939       C1113   1.484       .  S
C939       N1353   1.351       .  A
N940        N970   1.327       .  A
N940       Co973   2.092       .  S
N941       N1335   1.322       .  A
N941        N977   1.321       .  A
N942        C971   1.345       .  A
N942        N952   1.323       .  A
H943        C968   1.082       .  S
N944        N965   1.327       .  A
N945       N1339   1.319       .  A
N945        N950   1.325       .  A
C946       C1398   1.469       .  S
C946       N1326   1.349       .  A
C946        C974   1.455   1_565  S
N947        C962   1.350       .  A
N947       Co969   2.125       .  S
C948        H982   1.081       .  S
C948        N976   1.333       .  A
C948       C1327   1.444       .  S
N950       C1322   1.352       .  A
C951       C1394   1.465       .  S
C951        N972   1.356   1_565  A
C951       C1324   1.447       .  S
N953        C979   1.341       .  A
N953       Co969   2.074       .  S
N954        C968   1.341       .  A
N954       N1308   1.321       .  A
N955        N983   1.322       .  A
N955       Co973   2.079       .  S
H956        C979   1.081       .  S
H957        C974   1.081       .  S
N959       N1317   1.323   1_545  A
N959       Co973   2.102       .  S
N960        N972   1.329       .  A
N960       N1352   1.318   1_545  A
N960       Co969   2.107       .  S
C961       C1002   1.486       .  S
C961        C975   1.463       .  S
C962        H966   1.081       .  S
N963        C974   1.341       .  A
N963       N1321   1.320   1_545  A
N963       Co973   2.080       .  S
C967       C1009   1.467       .  S
C967        C979   1.460       .  S
C968       C1307   1.458       .  S
N970        C981   1.351       .  A
C971       C1013   1.467       .  S
Co973      Cl980   2.449   1_545  S
N976       N1336   1.319       .  A
N977       C1315   1.342       .  A
Cl980     Co1314   2.466       .  S
C981       C1006   1.486       .  S
C984        C985   1.405       .  A
C984        C989   1.401       .  A
C984       C1038   1.473       .  S
C985        C986   1.405       .  A
C985       C1014   1.481       .  S
C986        C987   1.406       .  A
C986        H991   1.083       .  S
C987        C988   1.408       .  A
C987       C1010   1.477       .  S
C988        C989   1.400       .  A
C988       C1034   1.483       .  S
C989        H990   1.083       .  S
C992        C993   1.401       .  A
C992        C997   1.400       .  A
C992       C1021   1.472       .  S
C993        C994   1.395       .  A
C993       C1029   1.469       .  S
C994        C995   1.405       .  A
C994        H999   1.085       .  S
C995        C996   1.408       .  A
C995       C1026   1.473       .  S
C996        C997   1.401       .  A
C996       C1017   1.480       .  S
C997        H998   1.086       .  S
C1000      C1042   1.545       .  S
C1001      C1002   1.353   1_455  D
C1001      H1003   1.088       .  S
C1005      C1006   1.349   1_455  D
C1006      H1008   1.085       .  S
C1009      C1010   1.339       .  D
C1010      H1012   1.088       .  S
C1013      C1014   1.340       .  D
C1013      H1015   1.086       .  S
C1017      C1018   1.340       .  D
C1017      H1395   1.086       .  S
C1018      C1327   1.461       .  S
C1018      H1020   1.087       .  S
H1019      C1393   1.085       .  S
C1021      C1022   1.335       .  D
C1021      H1023   1.086       .  S
C1022      C1322   1.457       .  S
C1022      H1400   1.087       .  S
H1024      C1398   1.087       .  S
C1025      C1294   1.459       .  S
C1025      C1026   1.340       .  D
C1025      H1027   1.087       .  S
C1026      H1404   1.086       .  S
H1028      C1402   1.086       .  S
C1029      C1030   1.337       .  D
C1029      H1407   1.085       .  S
C1030      C1290   1.467       .  S
C1030      H1032   1.087       .  S
H1031      C1405   1.087       .  S
C1033      C1034   1.340       .  D
C1033      H1035   1.087       .  S
C1037      C1038   1.336       .  D
C1038      H1040   1.086       .  S
C1041      C1042   1.358       .  D
C1041      H1043   1.082       .  S
C1042      H1044   1.086       .  S
C1045      C1046   1.350       .  D
C1045      H1047   1.086       .  S
C1046      H1048   1.087       .  S
C1049      C1050   1.344       .  D
C1049      H1051   1.086       .  S
C1050      H1052   1.087       .  S
C1053      C1054   1.351       .  D
C1053      H1055   1.086       .  S
C1054      H1056   1.087       .  S
C1057      C1058   1.338       .  D
C1057      H1059   1.086       .  S
C1058      H1060   1.088       .  S
C1061      C1062   1.349       .  D
C1061      H1063   1.086       .  S
C1062      H1064   1.087       .  S
C1065      C1066   1.355   1_655  D
C1066      H1068   1.086       .  S
C1069      C1070   1.341   1_455  D
C1070      H1072   1.086       .  S
C1073      C1074   1.341       .  D
C1073      H1075   1.086       .  S
C1074      H1076   1.089       .  S
C1077      C1078   1.343       .  D
C1077      H1079   1.087       .  S
C1078      H1080   1.087       .  S
C1081      C1082   1.345   1_565  D
C1081      H1459   1.087       .  S
C1082      H1084   1.086       .  S
H1083      C1457   1.088       .  S
C1085      C1086   1.350       .  D
C1085      H1463   1.088       .  S
C1086      H1088   1.085       .  S
H1087      C1461   1.087       .  S
C1089      C1090   1.346       .  D
C1089      H1091   1.083       .  S
C1090      H1092   1.087       .  S
C1093      C1138   1.554       .  S
C1093      C1094   1.355       .  D
C1093      H1095   1.088       .  S
C1094      H1096   1.086       .  S
C1097      C1098   1.344       .  D
C1097      H1099   1.086       .  S
C1098      H1100   1.087       .  S
C1101      C1102   1.342       .  D
C1101      H1103   1.087       .  S
C1102      H1104   1.087       .  S
C1105      C1106   1.349       .  D
C1105      H1107   1.086       .  S
C1106      H1108   1.086       .  S
C1109      C1110   1.340       .  D
C1109      H1111   1.087       .  S
C1110      H1112   1.088       .  S
C1113      C1114   1.348   1_565  D
C1113      H1491   1.086       .  S
C1114      C1129   1.545   1_545  S
C1114      H1116   1.087       .  S
H1115      C1489   1.087       .  S
C1117      C1129   1.537       .  S
C1117      C1118   1.349       .  D
C1117      H1119   1.088       .  S
C1118      H1496   1.085       .  S
H1120      C1494   1.086       .  S
C1121      C1129   1.540   1_545  S
C1121      C1122   1.349       .  D
C1121      H1123   1.087       .  S
C1122      H1124   1.087       .  S
C1125      C1126   1.338       .  D
C1125      H1127   1.088       .  S
C1126      H1128   1.086       .  S
C1129      C1501   1.544       .  S
C1130      C1131   1.408   1_554  A
C1130      C1477   1.485       .  S
C1131      C1485   1.474       .  S
C1132      C1133   1.401       .  A
C1132      H1137   1.085       .  S
C1133      C1134   1.410   1_556  A
C1133      C1482   1.482       .  S
C1134      C1135   1.406       .  A
C1134      C1473   1.476       .  S
C1135      H1136   1.085       .  S
C1138      C1457   1.541       .  S
C1138      C1461   1.543       .  S
C1138      C1466   1.535       .  S
C1139      C1450   1.535       .  S
C1140      C1141   1.405   1_556  A
C1140      C1145   1.402       .  A
C1140      C1437   1.481       .  S
C1141      C1142   1.403   1_565  A
C1141      C1429   1.475       .  S
C1142      H1147   1.085       .  S
C1143      C1144   1.406   1_554  A
C1143      C1425   1.475       .  S
C1144      C1433   1.484       .  S
C1145      H1146   1.084       .  S
C1148      C1486   1.460       .  S
C1148      N1166   1.344       .  A
C1148      C1185   1.458       .  S
N1149      N1166   1.321       .  A
N1149      N1171   1.318       .  A
N1149     Co1186   2.065       .  S
C1150      H1195   1.082       .  S
C1150      N1175   1.342       .  A
C1150      C1188   1.456       .  S
H1151      C1192   1.081       .  S
C1152      H1181   1.082       .  S
C1152      N1176   1.342       .  A
C1152      C1156   1.459       .  S
Co1153     N1171   2.084       .  S
Co1153     N1161   2.050       .  S
Co1153     N1193   2.063       .  S
Co1153     N1169   2.093       .  S
Co1153    Cl1197   2.441       .  S
N1154      C1192   1.348       .  A
N1154      N1161   1.318       .  A
N1154     Co1155   2.098       .  S
Co1155     N1158   2.086       .  S
Co1155     N1175   2.088       .  S
Co1155     N1162   2.107       .  S
Co1155    Cl1197   2.458       .  S
C1156      C1481   1.476       .  S
C1156      N1194   1.351       .  A
N1157      N1164   1.321       .  A
N1157      N1187   1.323       .  A
N1157     Co1190   2.077       .  S
N1158      N1176   1.319       .  A
N1158      N1194   1.327       .  A
N1159      C1188   1.350       .  A
N1159      N1169   1.326       .  A
H1160      C1185   1.081       .  S
N1161      N1182   1.317       .  A
N1162      N1180   1.322       .  A
N1162      N1167   1.327       .  A
C1163      C1449   1.472       .  S
C1163      N1167   1.352       .  A
C1163      C1191   1.454       .  S
N1164      C1179   1.346       .  A
N1164     Co1186   2.102       .  S
C1165      H1199   1.081       .  S
C1165      N1193   1.336       .  A
C1165      C1168   1.447       .  S
C1168      C1454   1.471       .  S
C1168      N1189   1.356       .  A
N1169      N1175   1.321       .  A
N1170      C1196   1.341       .  A
N1170      N1172   1.321       .  A
N1170     Co1186   2.078       .  S
N1171      C1185   1.342       .  A
N1172      N1200   1.325       .  A
N1172     Co1190   2.096       .  S
H1173      C1196   1.082       .  S
H1174      C1191   1.081       .  S
N1176     Co1190   2.092       .  S
N1177      N1189   1.330       .  A
N1177      N1193   1.321       .  A
N1177     Co1186   2.114       .  S
C1178      C1438   1.458       .  S
C1178      N1182   1.338       .  A
C1178      C1192   1.469       .  S
C1179      H1183   1.081       .  S
C1179      C1198   1.464       .  S
N1180      C1191   1.341       .  A
N1180     Co1190   2.080       .  S
C1184      C1465   1.474       .  S
C1184      N1200   1.350       .  A
C1184      C1196   1.459       .  S
Co1186    Cl1197   2.458       .  S
N1187      C1198   1.346       .  A
C1188      C1470   1.472       .  S
Co1190    Cl1197   2.446       .  S
C1198      C1434   1.471       .  S
C1201      C1502   1.484       .  S
C1201      N1219   1.350       .  A
C1201      C1238   1.466       .  S
N1202      N1219   1.325       .  A
N1202      N1224   1.322       .  A
N1202     Co1239   2.097       .  S
C1203      H1248   1.082       .  S
C1203      N1228   1.338       .  A
C1203      C1241   1.452       .  S
H1204      C1245   1.081       .  S
C1205      H1234   1.082       .  S
C1205      N1229   1.341       .  A
C1205      C1209   1.455       .  S
Co1206     N1224   2.098       .  S
Co1206     N1214   2.076       .  S
Co1206     N1246   2.053       .  S
Co1206     N1222   2.087       .  S
Co1206    Cl1250   2.443       .  S
N1207      C1245   1.345       .  A
N1207      N1214   1.322       .  A
N1207     Co1208   2.103       .  S
Co1208     N1211   2.089       .  S
Co1208     N1228   2.071       .  S
Co1208     N1215   2.098       .  S
Co1208    Cl1250   2.461       .  S
C1209      C1498   1.468       .  S
C1209      N1247   1.349       .  A
N1210      N1217   1.322       .  A
N1210      N1240   1.325       .  A
N1210     Co1243   2.076       .  S
N1211      N1229   1.323       .  A
N1211      N1247   1.327       .  A
N1212      C1241   1.349       .  A
N1212      N1222   1.325       .  A
H1213      C1238   1.081       .  S
N1214      N1235   1.322       .  A
N1215      N1233   1.319       .  A
N1215      N1220   1.327       .  A
C1216      C1426   1.467       .  S
C1216      N1220   1.352       .  A
C1216      C1244   1.451       .  S
N1217      C1232   1.342       .  A
N1217     Co1239   2.100       .  S
C1218      H1252   1.082       .  S
C1218      N1246   1.332       .  A
C1218      C1221   1.444       .  S
C1221      C1430   1.457       .  S
C1221      N1242   1.353       .  A
N1222      N1228   1.319       .  A
N1223      C1249   1.345       .  A
N1223      N1225   1.318       .  A
N1223     Co1239   2.089       .  S
N1224      C1238   1.346       .  A
N1225      N1253   1.324       .  A
N1225     Co1243   2.082       .  S
H1226      C1249   1.082       .  S
H1227      C1244   1.081       .  S
N1229     Co1243   2.092       .  S
N1230      N1242   1.326       .  A
N1230      N1246   1.318       .  A
N1230     Co1239   2.090       .  S
C1231      C1417   1.476       .  S
C1231      N1235   1.345       .  A
C1231      C1245   1.468       .  S
C1232      H1236   1.081       .  S
C1232      C1251   1.458       .  S
N1233      C1244   1.337       .  A
N1233     Co1243   2.064       .  S
C1237      C1478   1.471       .  S
C1237      N1253   1.347       .  A
C1237      C1249   1.463       .  S
Co1239    Cl1250   2.452       .  S
N1240      C1251   1.346       .  A
C1241      C1474   1.463       .  S
Co1243    Cl1250   2.448       .  S
C1251      C1421   1.466       .  S
C1254      C1446   1.487       .  S
C1254      N1272   1.356   1_455  A
N1255      N1272   1.333       .  A
N1255     Co1292   2.109       .  S
C1256      H1301   1.081       .  S
C1256      N1281   1.341       .  A
C1256      C1294   1.458       .  S
H1257      C1298   1.081       .  S
C1258      H1287   1.082       .  S
C1258      N1282   1.344       .  A
C1258      C1262   1.466   1_655  S
Co1259     N1277   2.100       .  S
Co1259     N1267   2.084       .  S
Co1259     N1299   2.073       .  S
Co1259     N1275   2.089       .  S
N1260      C1298   1.350       .  A
N1260     Co1261   2.119       .  S
Co1261     N1264   2.104       .  S
Co1261     N1281   2.080       .  S
Co1261     N1268   2.090       .  S
C1262      C1441   1.482       .  S
N1263      N1293   1.333       .  A
N1263     Co1296   2.132       .  S
N1264      N1300   1.328       .  A
N1265      N1275   1.326       .  A
H1266      C1291   1.082       .  S
N1267      N1288   1.326       .  A
N1268      N1273   1.324       .  A
C1269      C1409   1.486       .  S
C1269      N1273   1.347       .  A
N1270      C1285   1.351       .  A
N1270     Co1292   2.117       .  S
C1271      H1305   1.081       .  S
C1271      N1299   1.340       .  A
C1271      C1274   1.458       .  S
C1274      C1413   1.463       .  S
N1276      C1302   1.340       .  A
N1276     Co1292   2.082       .  S
N1277      C1291   1.344       .  A
N1278      N1306   1.322       .  A
N1278     Co1296   2.069       .  S
H1279      C1302   1.081       .  S
H1280      C1297   1.082       .  S
N1282     Co1296   2.101       .  S
N1283      N1295   1.321       .  A
N1283     Co1292   2.076       .  S
C1284      C1462   1.487       .  S
C1284      C1298   1.473       .  S
C1285      H1289   1.082       .  S
N1286      C1297   1.352       .  A
N1286     Co1296   2.116       .  S
C1290      N1306   1.345       .  A
N1293      C1304   1.361       .  A
Co1296    Cl1303   2.467   1_655  S
C1304      C1458   1.494       .  S
C1307      C1494   1.462       .  S
C1307      N1325   1.344       .  A
N1308      N1325   1.324       .  A
N1308     Co1345   2.075       .  S
C1309      H1354   1.081       .  S
C1309      N1334   1.339       .  A
H1310      C1351   1.081       .  S
C1311      H1340   1.081       .  S
C1311      N1335   1.349       .  A
C1311      C1315   1.472       .  S
Co1312     N1330   2.106       .  S
Co1312     N1320   2.063       .  S
Co1312     N1352   2.055       .  S
Co1312     N1328   2.106       .  S
N1313      C1351   1.346       .  A
N1313     Co1314   2.105       .  S
Co1314     N1317   2.094       .  S
Co1314     N1334   2.086       .  S
Co1314     N1321   2.095       .  S
C1315      C1489   1.478       .  S
N1316      N1346   1.325       .  A
N1316     Co1349   2.083       .  S
N1317      N1353   1.326       .  A
N1318      C1347   1.360       .  A
N1318      N1328   1.327       .  A
H1319      C1344   1.081       .  S
N1320      N1341   1.320       .  A
N1321      N1326   1.326       .  A
C1322      C1350   1.446       .  S
N1323      C1338   1.340       .  A
N1323     Co1345   2.096       .  S
C1324      H1358   1.081       .  S
C1324      N1352   1.334       .  A
C1327      N1348   1.354       .  A
N1329      C1355   1.340       .  A
N1329     Co1345   2.078       .  S
N1330      C1344   1.345       .  A
N1331      N1359   1.334       .  A
N1331     Co1349   2.113       .  S
H1332      C1355   1.082       .  S
H1333      C1350   1.081       .  S
N1335     Co1349   2.118       .  S
N1336      N1348   1.329       .  A
N1336     Co1345   2.095       .  S
C1337      C1378   1.478       .  S
C1337      C1351   1.469   1_455  S
C1338      H1342   1.081       .  S
N1339      C1350   1.333       .  A
N1339     Co1349   2.058       .  S
C1343      C1385   1.485       .  S
C1343      C1355   1.454       .  S
N1346      C1357   1.348   1_655  A
C1347      C1389   1.466       .  S
Co1349    Cl1356   2.464   1_655  S
C1357      C1382   1.467   1_455  S
C1360      C1361   1.414       .  A
C1360      C1365   1.388       .  A
C1360      C1414   1.475       .  S
C1361      C1362   1.413       .  A
C1361      C1390   1.500       .  S
C1362      C1363   1.423       .  A
C1362      H1367   1.083       .  S
C1363      C1364   1.426       .  A
C1363      C1386   1.490       .  S
C1364      C1365   1.400       .  A
C1364      C1410   1.501       .  S
C1365      H1366   1.085       .  S
C1368      C1369   1.409       .  A
C1368      C1373   1.401       .  A
C1368      C1397   1.480       .  S
C1369      C1370   1.406       .  A
C1369      C1405   1.480       .  S
C1370      C1371   1.405       .  A
C1370      H1375   1.085       .  S
C1371      C1372   1.410       .  A
C1371      C1402   1.482       .  S
C1372      C1373   1.403       .  A
C1372      C1393   1.483       .  S
C1373      H1374   1.085       .  S
C1376      C1418   1.532       .  S
C1377      C1378   1.342   1_655  D
C1377      H1379   1.088       .  S
C1381      C1382   1.347       .  D
C1382      H1384   1.085   1_655  S
C1385      C1386   1.345       .  D
C1386      H1388   1.086       .  S
C1389      C1390   1.343       .  D
C1389      H1391   1.089       .  S
C1393      C1394   1.340   1_545  D
C1394      H1396   1.087       .  S
C1397      C1398   1.345   1_545  D
C1397      H1399   1.087       .  S
C1401      C1402   1.345   1_565  D
C1401      H1403   1.086       .  S
C1405      C1406   1.341   1_545  D
C1406      H1408   1.087       .  S
C1409      C1410   1.353       .  D
C1409      H1411   1.087       .  S
C1413      C1414   1.338       .  D
C1414      H1416   1.086       .  S
C1417      C1418   1.340       .  D
C1417      H1419   1.086       .  S
C1418      H1420   1.087       .  S
C1421      C1422   1.346       .  D
C1421      H1423   1.086       .  S
C1422      H1424   1.089       .  S
C1425      C1426   1.346       .  D
C1425      H1427   1.087       .  S
C1426      H1428   1.087       .  S
C1429      C1430   1.334       .  D
C1429      H1431   1.087       .  S
C1430      H1432   1.087       .  S
C1433      C1434   1.343       .  D
C1433      H1435   1.086       .  S
C1434      H1436   1.087       .  S
C1437      C1438   1.335       .  D
C1437      H1439   1.086       .  S
C1438      H1440   1.087       .  S
C1441      C1442   1.343   1_455  D
C1442      H1444   1.086       .  S
C1445      C1446   1.357   1_655  D
C1446      H1448   1.084       .  S
C1449      C1450   1.347       .  D
C1449      H1451   1.085       .  S
C1450      H1452   1.089       .  S
C1453      C1454   1.352       .  D
C1453      H1455   1.090       .  S
C1454      H1456   1.086       .  S
C1457      C1458   1.361       .  D
C1458      H1460   1.086       .  S
C1461      C1462   1.347       .  D
C1462      H1464   1.083       .  S
C1465      C1466   1.352       .  D
C1465      H1467   1.084       .  S
C1466      H1468   1.087       .  S
C1469      C1470   1.347       .  D
C1469      H1471   1.089       .  S
C1470      H1472   1.086       .  S
C1473      C1474   1.341       .  D
C1473      H1475   1.086       .  S
C1474      H1476   1.087       .  S
C1477      C1478   1.344       .  D
C1477      H1479   1.086       .  S
C1478      H1480   1.087       .  S
C1481      C1482   1.345       .  D
C1481      H1483   1.087       .  S
C1482      H1484   1.086       .  S
C1485      C1486   1.340       .  D
C1485      H1487   1.086       .  S
C1486      H1488   1.087       .  S
C1489      C1490   1.339       .  D
C1490      H1492   1.089       .  S
C1493      C1494   1.349       .  D
C1493      H1495   1.087       .  S
C1497      C1498   1.349       .  D
C1497      H1499   1.088       .  S
C1498      H1500   1.086       .  S
C1501      C1502   1.352       .  D
C1501      H1503   1.086       .  S
C1502      H1504   1.083       .  S
