geometry optimzed in LAMMPS
_audit_creation_date              2020-12-01 
_audit_creation_method            'lammps2cif' 
_symmetry_space_group_name_H-M    'P1' 
_symmetry_Int_Tables_number       1 
_symmetry_cell_setting            triclinic 
loop_ 
_symmetry_equiv_pos_as_xyz 
  x,y,z 
_cell_length_a                    37.34502446 
_cell_length_b                    37.62819304506567 
_cell_length_c                    66.46597637152337 
_cell_angle_alpha                 90.479414346706 
_cell_angle_beta                  90.07774487970849 
_cell_angle_gamma                 90.84101541739308 
loop_ 
_atom_site_label 
_atom_site_type_symbol 
_atom_site_fract_x 
_atom_site_fract_y 
_atom_site_fract_z 
_atom_site_charge 
C1          C  0.24784170  0.49944661  0.25064616    -0.02700
N2          N  0.05577232  0.26448223  0.00225999    -0.36800
N3          N  0.49875928  0.24271063  0.03133230    -0.57300
N4          N  0.44355783  0.24588692  0.00034045    -0.36800
N5          N  0.49910350  0.25818091  0.95566154    -0.57300
C6          C  0.07606804  0.25565893  0.01816250     0.26800
C7          C  0.07737464  0.26806203  0.98608862     0.26800
C8          C  0.42286103  0.23592019  0.01592244     0.26800
C9          C  0.42353240  0.24437054  0.98347380     0.26800
C10         C  0.02640084  0.24851568  0.04336375     0.35400
C11         C  0.46911994  0.24415387  0.04296568     0.35400
C12         C  0.02941776  0.28701861  0.96407589     0.35400
C13         C  0.46876258  0.27315504  0.96255725     0.35400
C14         C  0.11163538  0.25422084  0.01210735    -0.22100
C15         C  0.11237801  0.26153634  0.99170335    -0.22100
C16         C  0.38879887  0.22728896  0.00875668    -0.22100
C17         C  0.38930866  0.23244907  0.98814068    -0.22100
C18         C  0.01392812  0.24836652  0.06300999    -0.23100
C19         C  0.47873891  0.25248286  0.06264080    -0.23100
C20         C  0.01411524  0.31408221  0.97518692    -0.23100
C21         C  0.47656842  0.30339789  0.97381570    -0.23100
C22         C  0.06321996  0.25045718  0.03800051    -0.18500
C23         C  0.06482036  0.27617488  0.96656408    -0.18500
C24         C  0.43653915  0.25395340  0.96430838    -0.18500
C25         C  0.43351775  0.23675185  0.03640160    -0.18500
H26         H  0.13460096  0.24829814  0.02137779     0.14400
H27         H  0.13591975  0.26247227  0.98223700     0.14400
H28         H  0.36587670  0.21865612  0.01748556     0.14400
H29         H  0.36701453  0.22858803  0.97789434     0.14400
H30         H  0.02944654  0.24986732  0.07676003     0.12700
H31         H  0.46129251  0.25554326  0.07550503     0.12700
H32         H  0.02780066  0.33299716  0.98497641     0.12700
H33         H  0.45796539  0.31891128  0.98260582     0.12700
H34         H  0.02860016  0.26873854  0.00235640     0.26000
H35         H  0.47018974  0.25458332  0.00096301     0.26000
C36         C  0.25257800  0.00169588  0.75019966    -0.02700
C37         C  0.99999875  0.25166779  0.75217331    -0.02700
N38         N  0.25505631  0.44243406  0.00094745    -0.36800
N39         N  0.26252251  0.00115004  0.03105303    -0.57300
N40         N  0.25362469  0.05647327  0.00071969    -0.36800
N41         N  0.25788028  0.00246946  0.96998091    -0.57300
C42         C  0.26185091  0.42314989  0.01759154     0.26800
C43         C  0.26630029  0.42347840  0.98492559     0.26800
C44         C  0.26272686  0.07666952  0.01685359     0.26800
C45         C  0.25628345  0.07737220  0.98435682     0.26800
C46         C  0.24467173  0.46898719  0.04227671     0.35400
C47         C  0.25634677  0.02976822  0.04283918     0.35400
C48         C  0.25455014  0.46853981  0.95841538     0.35400
C49         C  0.24953265  0.03021616  0.95816237     0.35400
C50         C  0.27728248  0.39127350  0.01206322    -0.22100
C51         C  0.27974273  0.39130645  0.99134933    -0.22100
C52         C  0.27037383  0.11112140  0.01077117    -0.22100
C53         C  0.26600101  0.11164216  0.99022178    -0.22100
C54         C  0.23146014  0.48048677  0.06064421    -0.23100
C55         C  0.24699259  0.01920068  0.06208650    -0.23100
C56         C  0.24605776  0.47783243  0.93881396    -0.23100
C57         C  0.24406461  0.01874393  0.93850010    -0.23100
C58         C  0.25299092  0.43349491  0.03742552    -0.18500
C59         C  0.26232865  0.43364550  0.96467315    -0.18500
C60         C  0.24990376  0.06622177  0.96433900    -0.18500
C61         C  0.26181486  0.06537529  0.03701007    -0.18500
H62         H  0.28542678  0.37005794  0.02188920     0.14400
H63         H  0.29009066  0.37003859  0.98207202     0.14400
H64         H  0.27794260  0.13362548  0.02018141     0.14400
H65         H  0.26987255  0.13457555  0.98070945     0.14400
H66         H  0.22294024  0.46428496  0.07318977     0.12700
H67         H  0.24109692  0.03596276  0.07493944     0.12700
H68         H  0.24223593  0.46034160  0.92595633     0.12700
H69         H  0.23802667  0.03457334  0.92544601     0.12700
H70         H  0.24002681  0.46544666  0.00027541     0.26000
H71         H  0.24279539  0.03092956  0.00107839     0.26000
N72         N  0.23483952  0.32711567  0.86560121    -0.06300
N73         N  0.22396677  0.34287527  0.88223634    -0.58400
N74         N  0.26565630  0.32824486  0.81881992    -0.06000
N75         N  0.27622677  0.35296212  0.80607881    -0.60500
N76         N  0.23047458  0.32705166  0.81967621    -0.05600
N77         N  0.21665315  0.35087334  0.80761006    -0.58400
N78         N  0.26994586  0.32762310  0.86475287    -0.05200
N79         N  0.28364132  0.34370653  0.88074621    -0.60900
C80         C  0.25463593  0.35294696  0.89164045     0.95900
C81         C  0.24535026  0.36690866  0.79908383     0.95700
N82         N  0.32770288  0.23491775  0.81768901    -0.06500
N83         N  0.35130625  0.22364619  0.80435635    -0.59000
N84         N  0.32883496  0.27047061  0.86385274    -0.04600
N85         N  0.34539038  0.28336203  0.87994051    -0.60200
N86         N  0.32904323  0.23557928  0.86402087    -0.06500
N87         N  0.34570910  0.22410500  0.88018494    -0.59200
N88         N  0.32651262  0.26986165  0.81748431    -0.04200
N89         N  0.34888830  0.28285170  0.80398022    -0.60300
Mn90       Mn  0.29853258  0.29976377  0.84098673     1.18400
C91         C  0.36372958  0.25380624  0.79556914     0.98000
C92         C  0.35572285  0.25421481  0.89009247     0.98600
N93         N  0.17093312  0.26563217  0.82142482    -0.06500
N94         N  0.14694148  0.27633908  0.80827242    -0.62800
N95         N  0.17608446  0.23356658  0.86839973    -0.05300
N96         N  0.15964081  0.22310561  0.88505438    -0.63500
N97         N  0.17625492  0.26840564  0.86745102    -0.06000
N98         N  0.16018210  0.28224460  0.88320783    -0.63100
N99         N  0.17119200  0.23071227  0.82198246    -0.04900
N100        N  0.14750600  0.21711200  0.80926437    -0.63800
Mn101      Mn  0.20237374  0.29769222  0.84330301     1.10700
C102        C  0.13250806  0.24572464  0.80070858     0.99200
C103        C  0.14990175  0.25392084  0.89423766     0.99300
N104        N  0.27061399  0.17596332  0.86567312    -0.06000
N105        N  0.28392152  0.15984581  0.88152842    -0.61400
N106        N  0.23198135  0.17226693  0.82050365    -0.05400
N107        N  0.21906206  0.14857889  0.80748228    -0.58100
N108        N  0.26720645  0.17364151  0.81936974    -0.06700
N109        N  0.27874770  0.15111189  0.80557612    -0.61000
N110        N  0.23549707  0.17577647  0.86658834    -0.05600
N111        N  0.22427840  0.15963424  0.88294730    -0.58200
Mn112      Mn  0.29950348  0.20414702  0.84146407     1.20200
Mn113      Mn  0.20284239  0.20216662  0.84429589     1.10100
Cl114      Cl  0.25079670  0.25089460  0.84222107    -0.86100
C115        C  0.25471499  0.14983622  0.89226323     0.96200
C116        C  0.24847035  0.13615064  0.79794937     0.96000
N117        N  0.24049480  0.32647960  0.18135121    -0.06300
N118        N  0.22803015  0.35283841  0.19239891    -0.58400
N119        N  0.27758195  0.32219265  0.13577790    -0.06000
N120        N  0.29090599  0.33883399  0.11997542    -0.60500
N121        N  0.24240020  0.32263111  0.13537181    -0.05600
N122        N  0.23108413  0.33933925  0.11923233    -0.58400
N123        N  0.27582840  0.32664547  0.18172447    -0.05200
N124        N  0.28792852  0.35334557  0.19302676    -0.60900
C125        C  0.25778649  0.36925053  0.19960243     0.95900
C126        C  0.26159377  0.34959787  0.10983420     0.95700
N127        N  0.33287202  0.22706380  0.13780866    -0.06500
N128        N  0.34647415  0.21309933  0.12130684    -0.59000
N129        N  0.33471354  0.26399672  0.18349207    -0.04600
N130        N  0.36003015  0.27567356  0.19595170    -0.60200
N131        N  0.33275802  0.22899598  0.18393640    -0.06500
N132        N  0.35669542  0.21658782  0.19659152    -0.59200
N133        N  0.33381257  0.26191766  0.13697618    -0.04200
N134        N  0.34804321  0.27231004  0.11976959    -0.60300
Mn135      Mn  0.30642282  0.29437949  0.15977176     1.18400
C136        C  0.35567922  0.24152750  0.11010722     0.98000
C137        C  0.37336799  0.24581717  0.20431152     0.98600
N138        N  0.18102672  0.26645818  0.13531123    -0.06500
N139        N  0.16256031  0.27979705  0.12034430    -0.62800
N140        N  0.17707360  0.23102374  0.18084798    -0.05300
N141        N  0.15206312  0.21874888  0.19301994    -0.63500
N142        N  0.17775477  0.26609884  0.18103114    -0.06000
N143        N  0.15276639  0.27826409  0.19325664    -0.63100
N144        N  0.17952982  0.23161629  0.13485636    -0.04900
N145        N  0.15974695  0.22060698  0.11944281    -0.63800
Mn146      Mn  0.20992812  0.29598332  0.15856499     1.10700
C147        C  0.14919039  0.25108339  0.11049942     0.99200
C148        C  0.13738398  0.24838408  0.20075274     0.99300
N149        N  0.26966534  0.16824545  0.18266043    -0.06000
N150        N  0.28009323  0.14181396  0.19418012    -0.61400
N151        N  0.23783558  0.17245419  0.13556773    -0.05400
N152        N  0.22665254  0.15859586  0.11837477    -0.58100
N153        N  0.27288858  0.17136051  0.13674509    -0.06700
N154        N  0.28626667  0.15694277  0.12033493    -0.61000
N155        N  0.23443793  0.16837199  0.18143148    -0.05600
N156        N  0.22053968  0.14207408  0.19213853    -0.58200
Mn157      Mn  0.30272478  0.19835905  0.16078077     1.20200
Mn158      Mn  0.20655003  0.20020611  0.15831371     1.10100
Cl159      Cl  0.25637797  0.24727216  0.15984984    -0.86100
C160        C  0.24921077  0.12558103  0.20008219     0.96200
C161        C  0.25716121  0.14925763  0.10893681     0.96000
N162        N  0.07761805  0.01635559  0.68174357    -0.06300
N163        N  0.10184361  0.02898152  0.69449035    -0.58400
N164        N  0.07548443  0.47754780  0.63689705    -0.06000
N165        N  0.09241069  0.46400585  0.62120628    -0.60500
N166        N  0.07493887  0.01362701  0.63559210    -0.05600
N167        N  0.09101768  0.02436993  0.61904288    -0.58400
N168        N  0.07437002  0.48111176  0.68338013    -0.05200
N169        N  0.09600340  0.46951636  0.69754266    -0.60900
C170        C  0.11551888  0.99976508  0.70311737     0.95900
C171        C  0.09908982  0.99397610  0.60919037     0.95700
N172        N  0.47025420  0.42737023  0.63652556    -0.06500
N173        N  0.45580430  0.40929576  0.62147871    -0.59000
N174        N  0.01239950  0.42082741  0.68280671    -0.04600
N175        N  0.02340836  0.39594025  0.69519032    -0.60200
N176        N  0.47236622  0.42795639  0.68223179    -0.06500
N177        N  0.45999403  0.40291158  0.69438691    -0.59200
N178        N  0.01400170  0.42212733  0.63638572    -0.04200
N179        N  0.02663452  0.40894268  0.61939449    -0.60300
Mn180      Mn  0.04481908  0.44954571  0.66018714     1.18400
C181        C  0.48415334  0.39734417  0.61106362     0.98000
C182        C  0.48983760  0.38717595  0.70143560     0.98600
N183        N  0.01943288  0.07489311  0.63519780    -0.06500
N184        N  0.03170195  0.09291006  0.61963288    -0.62800
N185        N  0.48536275  0.08466486  0.67914421    -0.05300
N186        N  0.47418970  0.11051357  0.69096430    -0.63500
N187        N  0.02101127  0.07972205  0.68088170    -0.06000
N188        N  0.03442946  0.10668673  0.69151941    -0.63100
N189        N  0.48287971  0.07843004  0.63340659    -0.04900
N190        N  0.46970193  0.09356388  0.61728613    -0.63800
Mn191      Mn  0.04916354  0.04658715  0.65853264     1.10700
C192        C  0.49891165  0.10221973  0.60632577     0.99200
C193        C  0.50466655  0.12625062  0.69783287     0.99300
N194        N  0.41354231  0.49111764  0.68186977    -0.06000
N195        N  0.38943898  0.48110127  0.69531604    -0.61400
N196        N  0.42271159  0.02252653  0.63552938    -0.05400
N197        N  0.40808006  0.03415064  0.61885680    -0.58100
N198        N  0.41448621  0.48645936  0.63505793    -0.06700
N199        N  0.40082981  0.47341165  0.61809847    -0.61000
N200        N  0.42286388  0.02693910  0.68119932    -0.05600
N201        N  0.39924599  0.04198394  0.69312172    -0.58200
Mn202      Mn  0.44177892  0.45768299  0.65931879     1.20200
Mn203      Mn  0.45291088  0.05368470  0.65757750     1.10100
Cl204      Cl  0.49854416  0.00443485  0.65827600    -0.86100
C205        C  0.38234584  0.01419229  0.70171256     0.96200
C206        C  0.39724110  0.00414672  0.60922869     0.96000
N207        N  0.48295307  0.41922765  0.31831385    -0.06300
N208        N  0.47284631  0.39459866  0.30514433    -0.58400
N209        N  0.01886903  0.42120740  0.36323788    -0.06000
N210        N  0.03143782  0.40396019  0.37888830    -0.60500
N211        N  0.47710300  0.42118144  0.36436623    -0.05600
N212        N  0.46278991  0.40603166  0.38034294    -0.58400
N213        N  0.02057531  0.42359869  0.31696130    -0.05200
N214        N  0.03414528  0.40064463  0.30398085    -0.60900
C215        C  0.50403570  0.38139946  0.29814018     0.95900
C216        C  0.49130611  0.39789024  0.39188396     0.95700
N217        N  0.07281410  0.01504548  0.36896116    -0.06500
N218        N  0.08831228  0.02671595  0.38565831    -0.59000
N219        N  0.07894589  0.48762211  0.32011931    -0.04600
N220        N  0.10317288  0.47817671  0.30673675    -0.60200
N221        N  0.07795516  0.01600784  0.32293387    -0.06500
N222        N  0.10125526  0.02928993  0.31010341    -0.59200
N223        N  0.07482283  0.48286890  0.36621350    -0.04200
N224        N  0.09135646  0.46988806  0.38200221    -0.60300
Mn225      Mn  0.04910057  0.45318212  0.34134536     1.18400
C226        C  0.09991145  0.49894208  0.39326054     0.98000
C227        C  0.11720561  0.50938703  0.30012024     0.98600
N228        N  0.41809131  0.47743783  0.36222838    -0.06500
N229        N  0.40128028  0.46464935  0.37810386    -0.62800
N230        N  0.42246772  0.01430774  0.31809040    -0.05300
N231        N  0.39974828  0.02491983  0.30417863    -0.63500
N232        N  0.42189720  0.47690776  0.31603751    -0.06000
N233        N  0.39957264  0.46361854  0.30242900    -0.63100
N234        N  0.42013336  0.01869407  0.36432112    -0.04900
N235        N  0.40349369  0.03304267  0.37980917    -0.63800
Mn236      Mn  0.44925549  0.44792805  0.33998219     1.10700
C237        C  0.38948623  0.49396303  0.38775785     0.99200
C238        C  0.38553222  0.49256202  0.29367699     0.99300
N239        N  0.01990576  0.07604502  0.32193239    -0.06000
N240        N  0.03404199  0.10030213  0.30998653    -0.61400
N241        N  0.48093920  0.07534350  0.36542506    -0.05400
N242        N  0.46778889  0.09316303  0.38083857    -0.58100
N243        N  0.01543460  0.07309284  0.36773070    -0.06700
N244        N  0.02702513  0.08888783  0.38430549    -0.61000
N245        N  0.48508617  0.07453280  0.31920066    -0.05600
N246        N  0.47498667  0.09812510  0.30578696    -0.58200
Mn247      Mn  0.04731143  0.04569960  0.34525659     1.20200
Mn248      Mn  0.45137266  0.04648982  0.34141258     1.10100
Cl249      Cl  0.49628740  0.49756208  0.34172357    -0.86100
C250        C  0.50617226  0.11187855  0.29873712     0.96200
C251        C  0.49689212  0.10310158  0.39178470     0.96000
N252        N  0.99117444  0.30553866  0.49956602    -0.36800
N253        N  0.99008578  0.25192470  0.53123891    -0.57300
N254        N  0.99072739  0.19527948  0.50180921    -0.36800
N255        N  0.99471508  0.24897628  0.47014453    -0.57300
C256        C  0.99953790  0.32615217  0.51571254     0.26800
C257        C  0.99871070  0.32460062  0.48286480     0.26800
C258        C  0.99574736  0.17623384  0.51870707     0.26800
C259        C  0.00058962  0.17472765  0.48608427     0.26800
C260        C  0.98618709  0.28165104  0.54248596     0.35400
C261        C  0.98317762  0.22423233  0.54353269     0.35400
C262        C  0.98859023  0.27641513  0.45764295     0.35400
C263        C  0.99139211  0.21908247  0.45887461     0.35400
C264        C  0.01168252  0.35912425  0.50919092    -0.22100
C265        C  0.01100292  0.35818658  0.48843251    -0.22100
C266        C  0.00790886  0.14269542  0.51363156    -0.22100
C267        C  0.01094077  0.14173454  0.49298157    -0.22100
C268        C  0.97650900  0.27276530  0.56198275    -0.23100
C269        C  0.97467253  0.23642430  0.56264802    -0.23100
C270        C  0.98142428  0.26387799  0.43836627    -0.23100
C271        C  0.98335873  0.22762878  0.43911631    -0.23100
C272        C  0.99506949  0.31645086  0.53612508    -0.18500
C273        C  0.99333394  0.31268912  0.46280380    -0.18500
C274        C  0.99838028  0.18431524  0.46565362    -0.18500
C275        C  0.98876395  0.18820266  0.53849574    -0.18500
H276        H  0.02003742  0.38158411  0.51842759     0.14400
H277        H  0.01875489  0.37970927  0.47857503     0.14400
H278        H  0.01395612  0.12117904  0.52373564     0.14400
H279        H  0.01959854  0.11925747  0.48406103     0.14400
H280        H  0.97237291  0.29058164  0.57460887     0.12700
H281        H  0.96889604  0.22075852  0.57587142     0.12700
H282        H  0.97630436  0.27926904  0.42500817     0.12700
H283        H  0.97986438  0.20968595  0.42643120     0.12700
H284        H  0.97780096  0.28116750  0.49992168     0.26000
H285        H  0.97799373  0.21954293  0.50088612     0.26000
N286        N  0.19549936  0.97968383  0.50158539    -0.36800
N287        N  0.24972839  0.98979628  0.53191802    -0.57300
N288        N  0.30501947  0.99815850  0.50124338    -0.36800
N289        N  0.25070636  0.99074105  0.47096797    -0.57300
C290        C  0.17444464  0.98374762  0.51793403     0.26800
C291        C  0.17479830  0.98516889  0.48530308     0.26800
C292        C  0.32316330  0.00952200  0.51765117     0.26800
C293        C  0.32378447  0.00904685  0.48501425     0.26800
C294        C  0.22195192  0.98121187  0.54401239     0.35400
C295        C  0.27914486  0.99029582  0.54370540     0.35400
C296        C  0.22243977  0.98255564  0.45905140     0.35400
C297        C  0.27997253  0.98971243  0.45903956     0.35400
C298        C  0.13965707  0.99057250  0.51195882    -0.22100
C299        C  0.13987147  0.99148395  0.49131632    -0.22100
C300        C  0.35417113  0.02740053  0.51185136    -0.22100
C301        C  0.35431975  0.02749341  0.49114995    -0.22100
C302        C  0.23370838  0.97675850  0.56360553    -0.23100
C303        C  0.26997885  0.98200820  0.56336905    -0.23100
C304        C  0.22497873  0.45548759  0.44001845    -0.23100
C305        C  0.26167384  0.45584866  0.43906398    -0.23100
C306        C  0.18570771  0.98081074  0.53807498    -0.18500
C307        C  0.18625413  0.98318573  0.46515233    -0.18500
C308        C  0.31478828  0.00082277  0.46493264    -0.18500
C309        C  0.31343833  0.00222284  0.53763687    -0.18500
H310        H  0.11652371  0.99458764  0.52145582     0.14400
H311        H  0.11685609  0.99619409  0.48184643     0.14400
H312        H  0.37466527  0.03894287  0.52151832     0.14400
H313        H  0.37489802  0.03908421  0.48169704     0.14400
H314        H  0.21777873  0.97101302  0.57680482     0.12700
H315        H  0.28736092  0.98128430  0.57639804     0.12700
H316        H  0.20694141  0.44867770  0.42777585     0.12700
H317        H  0.27748252  0.44946718  0.42591727     0.12700
H318        H  0.22160651  0.97057156  0.50141648     0.26000
H319        H  0.28355049  0.98028030  0.50121389     0.26000
C320        C  0.00765414  0.24457238  0.25156038    -0.02700
C321        C  0.03569142  0.30567096  0.26310462    -0.05900
C322        C  0.50865079  0.27987878  0.26581199     0.00000
C323        C  0.47935650  0.28857795  0.27929186    -0.08600
C324        C  0.47957497  0.32178571  0.28933607    -0.06000
C325        C  0.50647337  0.34745653  0.28673007     0.00000
C326        C  0.03591929  0.33982028  0.27193760    -0.08500
C327        C  0.06652739  0.36562075  0.26715511     0.61900
H328        H  0.05824543  0.30008693  0.25378419     0.12600
H329        H  0.45793723  0.32781946  0.29964082     0.12600
C330        C  0.44676186  0.26579369  0.28499863     0.62100
F331        F  0.08822906  0.35319599  0.25181636    -0.23100
F332        F  0.08776866  0.37084823  0.28398650    -0.20400
F333        F  0.05292734  0.39778752  0.26103172    -0.20100
F334        F  0.44476201  0.23287914  0.27626322    -0.20100
F335        F  0.41587241  0.28359414  0.27998994    -0.20400
F336        F  0.44695679  0.26073728  0.30561521    -0.23100
C337        C  0.00992307  0.14407193  0.26855331    -0.05900
C338        C  0.50853608  0.14548791  0.28737317     0.00000
C339        C  0.50711101  0.17892323  0.29691033    -0.08600
C340        C  0.51047065  0.20971759  0.28517405    -0.06000
C341        C  0.51273325  0.20906487  0.26380828     0.00000
C342        C  0.01192912  0.17358106  0.25566323    -0.08500
C343        C  0.01920816  0.16451906  0.23345120     0.61900
H344        H  0.01152752  0.11724358  0.26262731     0.12600
H345        H  0.51097553  0.23463879  0.29312099     0.12600
C346        C  0.50179669  0.18199072  0.31953426     0.62100
F347        F  0.01317145  0.12879462  0.22923429    -0.23100
F348        F  0.05467687  0.17156226  0.22897730    -0.20400
F349        F  0.99754332  0.18262161  0.22045753    -0.20100
F350        F  0.52935773  0.16527673  0.32942550    -0.20100
F351        F  0.46956470  0.16610910  0.32480739    -0.20400
F352        F  0.50122141  0.21700541  0.32607177    -0.23100
C353        C  0.02976896  0.13193087  0.42055846    -0.05900
C354        C  0.49639456  0.12374631  0.41107075     0.00000
C355        C  0.46446803  0.13429165  0.42106791    -0.08600
C356        C  0.46739340  0.15494895  0.43867790    -0.06000
C357        C  0.00091953  0.15618857  0.45006919     0.00000
C358        C  0.03234601  0.15127603  0.43867682    -0.08500
C359        C  0.06834432  0.16593878  0.44583924     0.61900
H360        H  0.05347453  0.12882402  0.41140167     0.12600
H361        H  0.44357112  0.16444762  0.44615842     0.12600
C362        C  0.42734189  0.12388788  0.41366591     0.62100
F363        F  0.09509011  0.16032069  0.43181288    -0.23100
F364        F  0.07784243  0.14916216  0.46344700    -0.20400
F365        F  0.06660815  0.20210744  0.44942590    -0.20100
F366        F  0.42447072  0.08724394  0.41286223    -0.20100
F367        F  0.42137968  0.13819851  0.39487427    -0.20400
F368        F  0.40064740  0.13605322  0.42630925    -0.23100
C369        C  0.02857392  0.33831756  0.43494525    -0.05900
C370        C  0.99641467  0.33832002  0.44584283     0.00000
C371        C  0.45267078  0.34369269  0.43463560    -0.08600
C372        C  0.45671167  0.36235521  0.41654273    -0.06000
C373        C  0.48804629  0.38212348  0.41227805     0.00000
C374        C  0.03166976  0.35437140  0.41592526    -0.08500
C375        C  0.06569923  0.34883267  0.40381461     0.61900
H376        H  0.05070025  0.32348826  0.44101556     0.12600
H377        H  0.43602408  0.35998150  0.40515702     0.12600
C378        C  0.41947177  0.32079644  0.43806167     0.62100
F379        F  0.08884583  0.32582047  0.41322458    -0.23100
F380        F  0.08375363  0.38078748  0.40131489    -0.20400
F381        F  0.05712958  0.33430558  0.38519636    -0.20100
F382        F  0.40762443  0.32466125  0.45765569    -0.20100
F383        F  0.42728343  0.28550628  0.43449440    -0.20400
F384        F  0.39180990  0.33030516  0.42540567    -0.23100
C385        C  0.11244789  0.46475837  0.42384188    -0.05900
C386        C  0.11690780  0.49687205  0.41337680     0.00000
C387        C  0.12473582  0.02450736  0.42736783    -0.08600
C388        C  0.14713192  0.01938377  0.44402881    -0.06000
C389        C  0.15508643  0.48434940  0.44907785     0.00000
C390        C  0.13127668  0.45795786  0.44163348    -0.08500
C391        C  0.12700879  0.42236250  0.45198609     0.61900
H392        H  0.09478710  0.44441549  0.41763282     0.12600
H393        H  0.15616033  0.04186863  0.45308095     0.12600
C394        C  0.11052186  0.06146524  0.42355890     0.62100
F395        F  0.10044388  0.40147325  0.44312142    -0.23100
F396        F  0.11790654  0.42758130  0.47193311    -0.20400
F397        F  0.19170782  0.91255682  0.44607529    -0.20100
F398        F  0.11115488  0.57760515  0.41140252    -0.20100
F399        F  0.12642034  0.07558476  0.40657949    -0.20400
F400        F  0.11764628  0.08438827  0.43953331    -0.23100
C401        C  0.38084332  0.46741634  0.42136380    -0.05900
C402        C  0.37057256  0.49303292  0.40726387     0.00000
C403        C  0.34996941  0.03400773  0.41576192    -0.08600
C404        C  0.33474704  0.03374784  0.43506629    -0.06000
C405        C  0.33348600  0.48571824  0.44395405     0.00000
C406        C  0.36213529  0.46272367  0.43954444    -0.08500
C407        C  0.37126754  0.43200117  0.45324940     0.61900
H408        H  0.40294032  0.45020937  0.41768185     0.12600
H409        H  0.31443991  0.05282584  0.43904382     0.12600
C410        C  0.33556996  0.05974872  0.40028512     0.62100
F411        F  0.40208099  0.92862317  0.45103446    -0.23100
F412        F  0.34617336  0.93164692  0.46302120    -0.20400
F413        F  0.37940780  0.44436407  0.47235946    -0.20100
F414        F  0.32474350  0.04123613  0.38322586    -0.20100
F415        F  0.34903242  0.56812244  0.39250863    -0.20400
F416        F  0.29328076  0.55368785  0.40175762    -0.23100
C417        C  0.12608950  0.95751154  0.58217742    -0.05900
C418        C  0.11757609  0.99169202  0.58940123     0.00000
C419        C  0.12727849  0.02188789  0.57768619    -0.08600
C420        C  0.14817686  0.01674388  0.56042320    -0.06000
C421        C  0.15859418  0.98287892  0.55423869     0.00000
C422        C  0.14627600  0.95257412  0.56460529    -0.08500
C423        C  0.15480372  0.91539981  0.55715319     0.61900
H424        H  0.11755834  0.93445722  0.59063763     0.12600
H425        H  0.19371102  0.52875343  0.56575133     0.12600
C426        C  0.11622326  0.05942787  0.58306267     0.62100
F427        F  0.11691858  0.39991535  0.55701131    -0.23100
F428        F  0.14432505  0.42321106  0.53040753    -0.20400
F429        F  0.13912209  0.88947900  0.56904776    -0.20100
F430        F  0.17522502  0.52359357  0.62111461    -0.20100
F431        F  0.07942554  0.06042743  0.58529132    -0.20400
F432        F  0.12548384  0.08353927  0.56824982    -0.23100
C433        C  0.36110753  0.03484568  0.58413076    -0.05900
C434        C  0.37989007  0.00413771  0.58931713     0.00000
C435        C  0.38952646  0.48108743  0.57082205    -0.08600
C436        C  0.37006139  0.48027264  0.55266985    -0.06000
C437        C  0.34069678  0.00655684  0.55347958     0.00000
C438        C  0.34141804  0.03663199  0.56626712    -0.08500
C439        C  0.32113460  0.07009447  0.56111385     0.61900
H440        H  0.36090585  0.05714349  0.59452857     0.12600
H441        H  0.37659245  0.46117964  0.54099328     0.12600
C442        C  0.42274169  0.45880130  0.57266819     0.62100
F443        F  0.32566070  0.09630368  0.57566930    -0.23100
F444        F  0.28489310  0.06271191  0.55940689    -0.18800
F445        F  0.33354131  0.08340064  0.54306170    -0.20100
F446        F  0.41501782  0.42957892  0.58424915    -0.20100
F447        F  0.45023235  0.47841888  0.58152026    -0.20400
F448        F  0.43457321  0.44709105  0.55404247    -0.23100
C449        C  0.46360145  0.13623458  0.58184576    -0.05900
C450        C  0.49676197  0.12121423  0.58684125     0.00000
C451        C  0.02868203  0.14753375  0.58474441    -0.08600
C452        C  0.02457811  0.16471970  0.56621187    -0.06000
C453        C  0.99228006  0.16299957  0.55542092     0.00000
C454        C  0.45937195  0.15708984  0.56465180    -0.08500
C455        C  0.42371481  0.17453074  0.56039940     0.61900
H456        H  0.44116387  0.13287112  0.59197104     0.12600
H457        H  0.04579829  0.18185111  0.56057312     0.12600
C458        C  0.06114488  0.15670347  0.59770996     0.62100
F459        F  0.39749415  0.16391922  0.57387391    -0.23100
F460        F  0.41223299  0.16540874  0.54123369    -0.20400
F461        F  0.42730342  0.21107335  0.56182119    -0.20100
F462        F  0.08244643  0.12740875  0.59998385    -0.20100
F463        F  0.04996412  0.16847070  0.61641827    -0.20400
F464        F  0.08205160  0.18341064  0.58932931    -0.23100
C465        C  0.02823225  0.36457752  0.58298132    -0.05900
C466        C  0.48124728  0.37882902  0.59142253     0.00000
C467        C  0.45197248  0.35582264  0.58630430    -0.08600
C468        C  0.45177809  0.33952057  0.56723075    -0.06000
C469        C  0.99981339  0.34400066  0.55211933     0.00000
C470        C  0.02969878  0.34418373  0.56520675    -0.08500
C471        C  0.06237254  0.32187152  0.56083523     0.61900
H472        H  0.04987530  0.36292088  0.59377391     0.12600
H473        H  0.43019743  0.32141727  0.56297024     0.12600
C474        C  0.42280791  0.34555679  0.60130266     0.62100
F475        F  0.09127090  0.33240539  0.57262729    -0.23100
F476        F  0.07228322  0.32540598  0.54089600    -0.20400
F477        F  0.05487609  0.28652117  0.56469408    -0.20100
F478        F  0.40094383  0.37400484  0.60534021    -0.20100
F479        F  0.43828151  0.33429327  0.61901619    -0.20400
F480        F  0.40119462  0.31805942  0.59408891    -0.23100
C481        C  0.04018939  0.24416381  0.21695911    -0.05900
C482        C  0.04289942  0.24284052  0.23829390     0.00000
C483        C  0.07890072  0.23956194  0.24653006    -0.08600
C484        C  0.10842988  0.24317646  0.23350206    -0.06000
C485        C  0.10453025  0.24755475  0.21292117     0.00000
C486        C  0.07017170  0.24679537  0.20425997    -0.08500
C487        C  0.06531926  0.24899387  0.18160081     0.61900
H488        H  0.01428016  0.24392439  0.20988260     0.12600
H489        H  0.13555058  0.24146935  0.23916311     0.12600
C490        C  0.08823339  0.23082163  0.26843625     0.62100
F491        F  0.02966597  0.24621077  0.17597671    -0.23100
F492        F  0.08349927  0.22174317  0.17221016    -0.20400
F493        F  0.07869474  0.28122813  0.17488666    -0.20100
F494        F  0.08015174  0.19560841  0.27225416    -0.20100
F495        F  0.07084397  0.25235540  0.28195814    -0.20400
F496        F  0.12444186  0.23534794  0.27242618    -0.23100
C497        C  0.43018264  0.27494828  0.21600339    -0.05900
C498        C  0.40757056  0.24494416  0.21619595     0.00000
C499        C  0.41780991  0.21561576  0.22786973    -0.08600
C500        C  0.45069821  0.21714302  0.23815390    -0.06000
C501        C  0.47481435  0.24687530  0.23824272     0.00000
C502        C  0.46312186  0.27724201  0.22663411    -0.08500
C503        C  0.48131101  0.31407547  0.22609336     0.61900
H504        H  0.42111544  0.29759847  0.20758767     0.12600
H505        H  0.45648636  0.19432971  0.24696381     0.12600
C506        C  0.39372377  0.18286585  0.23036924     0.62100
F507        F  0.47126286  0.33346117  0.24282724    -0.23100
F508        F  0.47098537  0.33304168  0.20932949    -0.20400
F509        F  0.51794191  0.31287330  0.22506080    -0.20100
F510        F  0.39164514  0.16410028  0.21242836    -0.20100
F511        F  0.35987399  0.19309485  0.23628615    -0.20400
F512        F  0.40637248  0.15988322  0.24482692    -0.23100
C513        C  0.29119920  0.11566960  0.08362707    -0.05900
C514        C  0.25919682  0.13276580  0.08872449     0.00000
C515        C  0.23069052  0.13328408  0.07455650    -0.08600
C516        C  0.23342569  0.11228429  0.05712264    -0.06000
C517        C  0.26400214  0.09244306  0.05319980     0.00000
C518        C  0.29426520  0.09572010  0.06585429    -0.08500
C519        C  0.32939994  0.07807339  0.06062561     0.61900
H520        H  0.31352101  0.11682846  0.09402960     0.12600
H521        H  0.21103128  0.10986479  0.04679371     0.12600
C522        C  0.19751774  0.15550770  0.07749200     0.62100
F523        F  0.35635046  0.08768662  0.07399811    -0.23100
F524        F  0.34003111  0.08820767  0.04156477    -0.20400
F525        F  0.32546960  0.04153695  0.06109351    -0.20100
F526        F  0.20720732  0.18991870  0.08291099    -0.20100
F527        F  0.17602575  0.14062353  0.09220517    -0.20400
F528        F  0.17763864  0.15734700  0.05995942    -0.23100
C529        C  0.28462141  0.41534111  0.06827620    -0.05900
C530        C  0.25693764  0.40817999  0.05444020     0.00000
C531        C  0.23138083  0.38107132  0.05862273    -0.08600
C532        C  0.23491511  0.36166225  0.07652958    -0.06000
C533        C  0.26215880  0.36936241  0.09059904     0.00000
C534        C  0.28716516  0.39714948  0.08660903    -0.08500
C535        C  0.31476121  0.40950561  0.10208734     0.61900
H536        H  0.30336665  0.43672515  0.06493146     0.12600
H537        H  0.21594818  0.34046468  0.07983085     0.12600
C538        C  0.19997895  0.37323756  0.04463899     0.62100
F539        F  0.33151674  0.44098611  0.09652782    -0.23100
F540        F  0.34079906  0.38414500  0.10422656    -0.20400
F541        F  0.29834762  0.41533496  0.12044985    -0.20100
F542        F  0.21204664  0.35713689  0.02722328    -0.20100
F543        F  0.18283704  0.40435794  0.03978997    -0.20400
F544        F  0.17496462  0.35071968  0.05342924    -0.23100
C545        C  0.28304197  0.10496531  0.94112014    -0.05900
C546        C  0.24974573  0.09310819  0.94818542     0.00000
C547        C  0.21809437  0.10234394  0.93798098    -0.08600
C548        C  0.22124736  0.12126376  0.91996209    -0.06000
C549        C  0.25481453  0.13168071  0.91208254     0.00000
C550        C  0.28633446  0.12463010  0.92334928    -0.08500
C551        C  0.32337043  0.13723589  0.91697566     0.61900
H552        H  0.30670549  0.09731995  0.94937641     0.12600
H553        H  0.19717217  0.12746259  0.91171418     0.12600
C554        C  0.18130234  0.09206649  0.94603021     0.62100
F555        F  0.34910803  0.12983227  0.93129641    -0.23100
F556        F  0.32343226  0.17364303  0.91439308    -0.20400
F557        F  0.33306613  0.12042764  0.89926542    -0.20100
F558        F  0.17697294  0.10674188  0.96499345    -0.20100
F559        F  0.17761169  0.05557438  0.94725144    -0.20400
F560        F  0.15406435  0.10410768  0.93381227    -0.23100
C561        C  0.23267931  0.38733970  0.94429940    -0.05900
C562        C  0.26422403  0.40620497  0.94874119     0.00000
C563        C  0.29396651  0.40410955  0.93577661    -0.08600
C564        C  0.28961659  0.38624128  0.91731677    -0.06000
C565        C  0.25700255  0.36941714  0.91196278     0.00000
C566        C  0.22856016  0.36830480  0.92619480    -0.08500
C567        C  0.19400344  0.34743131  0.92265232     0.61900
H568        H  0.21051302  0.38937656  0.95472741     0.12600
H569        H  0.31161813  0.38602911  0.90674186     0.12600
C570        C  0.32991215  0.42068816  0.94157597     0.62100
F571        F  0.17275195  0.34648998  0.93969679    -0.23100
F572        F  0.20180424  0.31270733  0.91752263    -0.20400
F573        F  0.17442759  0.36295858  0.90748687    -0.20100
F574        F  0.35586268  0.41423244  0.92720390    -0.20100
F575        F  0.34127266  0.40640662  0.95955534    -0.20400
F576        F  0.32705162  0.45706214  0.94386818    -0.23100
C577        C  0.02683163  0.21361762  0.72372282    -0.05900
C578        C  0.49822892  0.22026379  0.73695532     0.00000
C579        C  0.47454860  0.18919019  0.73884846    -0.08600
C580        C  0.47589805  0.16244494  0.72391082    -0.06000
C581        C  0.50460813  0.15885956  0.71077107     0.00000
C582        C  0.03101167  0.18397894  0.71077021    -0.08500
C583        C  0.06232342  0.18300162  0.69623927     0.61900
H584        H  0.04619855  0.23494950  0.72280631     0.12600
H585        H  0.45558118  0.14157228  0.72366342     0.12600
C586        C  0.45079760  0.17830425  0.75671399     0.62100
F587        F  0.08176569  0.21462259  0.69635482    -0.23100
F588        F  0.04998137  0.17704953  0.67684906    -0.20400
F589        F  0.08522875  0.15612311  0.70159713    -0.20100
F590        F  0.41723523  0.19264858  0.75505143    -0.20100
F591        F  0.46606822  0.18672454  0.77489305    -0.20400
F592        F  0.44573636  0.14172499  0.75744506    -0.23100
C593        C  0.49590314  0.35709134  0.73404277    -0.05900
C594        C  0.48985522  0.35396328  0.71349508     0.00000
C595        C  0.98698515  0.31493529  0.70608973    -0.08600
C596        C  0.98809116  0.28503241  0.71868761    -0.06000
C597        C  0.49641959  0.29167156  0.73828383     0.00000
C598        C  0.49720447  0.32738289  0.74695012    -0.08500
C599        C  0.49809031  0.33641271  0.76943792     0.61900
H600        H  0.49875206  0.38388083  0.73994828     0.12600
H601        H  0.98302741  0.25954952  0.71173423     0.12600
C602        C  0.98151475  0.31036535  0.68357722     0.62100
F603        F  0.50008851  0.37267395  0.77313224    -0.23100
F604        F  0.52756428  0.32241181  0.77848088    -0.20400
F605        F  0.46719830  0.32467045  0.77868403    -0.20100
F606        F  0.00995157  0.32577620  0.67338843    -0.20100
F607        F  0.95015306  0.32661527  0.67789863    -0.20400
F608        F  0.97922182  0.27492935  0.67788202    -0.23100
C609        C  0.04751243  0.21852690  0.77191877    -0.05900
C610        C  0.03837801  0.25062914  0.76231412     0.00000
C611        C  0.06750719  0.27645539  0.76106677    -0.08600
C612        C  0.09467057  0.27524186  0.77570090    -0.06000
C613        C  0.10131062  0.24458502  0.78670139     0.00000
C614        C  0.07908569  0.21429475  0.78319784    -0.08500
C615        C  0.08778410  0.17770093  0.79121891     0.61900
H616        H  0.02945537  0.19613587  0.77060278     0.12600
H617        H  0.11365165  0.29728684  0.77684528     0.12600
C618        C  0.07649909  0.30271482  0.74423293     0.62100
F619        F  0.06336229  0.15198790  0.78476874    -0.23100
F620        F  0.08735508  0.17823497  0.81201722    -0.20400
F621        F  0.12114554  0.16763864  0.78437136    -0.20100
F622        F  0.06977424  0.33707290  0.75052954    -0.20100
F623        F  0.05950686  0.29580263  0.72630081    -0.20400
F624        F  0.11271132  0.30095387  0.73981141    -0.23100
C625        C  0.42966447  0.25061324  0.79584329    -0.05900
C626        C  0.39835562  0.25588701  0.78492066     0.00000
C627        C  0.40056030  0.26412320  0.76448833    -0.08600
C628        C  0.43399702  0.26210132  0.75500118    -0.06000
C629        C  0.46698146  0.25642970  0.76538337     0.00000
C630        C  0.46431354  0.25355578  0.78725828    -0.08500
C631        C  0.49434915  0.25023398  0.80283791     0.61900
H632        H  0.42656293  0.24470656  0.81168942     0.12600
H633        H  0.43412649  0.26403913  0.73881661     0.12600
C634        C  0.36735898  0.27377669  0.75263157     0.62100
F635        F  0.48340636  0.26282768  0.82146728    -0.23100
F636        F  0.52442657  0.26981851  0.79844239    -0.20400
F637        F  0.50291472  0.21496600  0.80526228    -0.20100
F638        F  0.35247889  0.30397349  0.76094218    -0.20100
F639        F  0.34253689  0.24617443  0.75331545    -0.20400
F640        F  0.37504860  0.28067799  0.73265569    -0.23100
C641        C  0.35333208  0.01511276  0.73456760    -0.05900
C642        C  0.34980846  0.01768019  0.71385595     0.00000
C643        C  0.31603363  0.02464048  0.70545643    -0.08600
C644        C  0.28572947  0.02170923  0.71790958    -0.06000
C645        C  0.28803039  0.01145269  0.73838883     0.00000
C646        C  0.32331837  0.01501451  0.74736896    -0.08500
C647        C  0.32600786  0.52342863  0.77101588     0.61900
H648        H  0.38022082  0.01365388  0.74060076     0.12600
H649        H  0.25993970  0.02652617  0.71125259     0.12600
C650        C  0.31206158  0.03479327  0.68349417     0.62100
F651        F  0.36238212  0.52305209  0.77511774    -0.23100
F652        F  0.31062064  0.49795254  0.78291437    -0.20400
F653        F  0.31923474  0.05377784  0.77570422    -0.20100
F654        F  0.31880647  0.48508047  0.67570756    -0.20100
F655        F  0.33066509  0.06619219  0.68001303    -0.20400
F656        F  0.27662123  0.03985170  0.67821237    -0.23100
C657        C  0.17680006  0.97783851  0.70907477    -0.05900
C658        C  0.14949124  0.00059368  0.71481945     0.00000
C659        C  0.14776527  0.51961511  0.73583276    -0.08600
C660        C  0.18115886  0.51969447  0.74567089    -0.06000
C661        C  0.21731463  0.00074611  0.73597415     0.00000
C662        C  0.21004826  0.97604060  0.71934115    -0.08500
C663        C  0.23442696  0.94600416  0.71209076     0.61900
H664        H  0.17121493  0.96085661  0.69620553     0.12600
H665        H  0.18226882  0.53465578  0.75949719     0.12600
C666        C  0.11621356  0.53905443  0.74502570     0.62100
F667        F  0.24041972  0.92213813  0.72723279    -0.23100
F668        F  0.23371569  0.42080942  0.73238448    -0.20400
F669        F  0.21938560  0.92634193  0.69643181    -0.20100
F670        F  0.08778324  0.51548529  0.74749713    -0.20100
F671        F  0.11727594  0.07254080  0.72574938    -0.20400
F672        F  0.12435424  0.55367941  0.76369631    -0.23100
C673        C  0.25101755  0.06857572  0.75552871    -0.05900
C674        C  0.24956147  0.03486029  0.76548439     0.00000
C675        C  0.24570183  0.03657592  0.78733490    -0.08600
C676        C  0.24563592  0.07054740  0.79686285    -0.06000
C677        C  0.24860680  0.10236222  0.78640490     0.00000
C678        C  0.25160246  0.10161462  0.76546517    -0.08500
C679        C  0.25535811  0.13592856  0.75370518     0.61900
H680        H  0.25144263  0.06902929  0.73931092     0.12600
H681        H  0.24247923  0.07310822  0.81299197     0.12600
C682        C  0.23778313  0.00575646  0.80163484     0.62100
F683        F  0.22567747  0.15674808  0.75699025    -0.23100
F684        F  0.25836602  0.12981387  0.73321149    -0.20400
F685        F  0.28570439  0.15439992  0.76002754    -0.20100
F686        F  0.26110889  0.97816690  0.79933305    -0.20100
F687        F  0.20280459  0.99441921  0.79901251    -0.20400
F688        F  0.24087203  0.01579011  0.82167230    -0.23100
C689        C  0.21680849  0.45156446  0.77205848    -0.05900
C690        C  0.24936968  0.46378847  0.76325900     0.00000
C691        C  0.27853764  0.43852064  0.76379025    -0.08600
C692        C  0.27625730  0.41027701  0.77748278    -0.06000
C693        C  0.24425016  0.39967551  0.78660121     0.00000
C694        C  0.21322910  0.41993139  0.78306860    -0.08500
C695        C  0.17650251  0.40960322  0.79126304     0.61900
H696        H  0.19338565  0.46766154  0.77063103     0.12600
H697        H  0.29959650  0.39390483  0.77963879     0.12600
C698        C  0.31031861  0.43415554  0.74940694     0.62100
F699        F  0.15026698  0.43324280  0.78568292    -0.23100
F700        F  0.17751857  0.40911894  0.81206120    -0.20400
F701        F  0.16632338  0.37649869  0.78386744    -0.20100
F702        F  0.34136175  0.44711730  0.75828982    -0.20100
F703        F  0.30569837  0.44910823  0.73097629    -0.20400
F704        F  0.31543717  0.39841383  0.74516886    -0.23100
C705        C  0.09582163  0.28259302  0.06481976    -0.05900
C706        C  0.08938835  0.25025104  0.05483525     0.00000
C707        C  0.10171631  0.21835038  0.06325013    -0.08600
C708        C  0.12176519  0.22017595  0.08113630    -0.06000
C709        C  0.12799773  0.25246402  0.09148073     0.00000
C710        C  0.11333531  0.28429392  0.08355201    -0.08500
C711        C  0.11301056  0.31936462  0.09516320     0.61900
H712        H  0.08457821  0.30630205  0.05835676     0.12600
H713        H  0.13192033  0.19595104  0.08745598     0.12600
C714        C  0.09296996  0.18254384  0.05360063     0.62100
F715        F  0.09310959  0.34486762  0.08544546    -0.23100
F716        F  0.14738539  0.33290537  0.09737572    -0.20400
F717        F  0.09767402  0.31409941  0.11386751    -0.20100
F718        F  0.10837367  0.18075909  0.03473193    -0.20100
F719        F  0.05631421  0.17802063  0.05177335    -0.20400
F720        F  0.10555694  0.15465907  0.06492892    -0.23100
C721        C  0.38256079  0.26036950  0.05583117    -0.05900
C722        C  0.40591904  0.23216284  0.05230387     0.00000
C723        C  0.40764563  0.20418080  0.06635226    -0.08600
C724        C  0.39056493  0.20830894  0.08495186    -0.06000
C725        C  0.37014807  0.23838132  0.08942496     0.00000
C726        C  0.36354157  0.26336890  0.07401271    -0.08500
C727        C  0.33651735  0.29276301  0.07648083     0.61900
H728        H  0.38087567  0.28113500  0.04468953     0.12600
H729        H  0.39396833  0.18803450  0.09626785     0.12600
C730        C  0.42832445  0.17034440  0.06277975     0.62100
F731        F  0.32923539  0.30906720  0.05835794    -0.23100
F732        F  0.34976845  0.31829577  0.08962891    -0.20400
F733        F  0.30460975  0.27889041  0.08379433    -0.20100
F734        F  0.45772134  0.16992641  0.07543870    -0.20100
F735        F  0.43983288  0.16676920  0.04311563    -0.20400
F736        F  0.40650100  0.14136441  0.06700828    -0.23100
C737        C  0.10277514  0.23762243  0.94489841    -0.05900
C738        C  0.08743257  0.27096428  0.94834084     0.00000
C739        C  0.09405663  0.29875142  0.93451497    -0.08600
C740        C  0.11411875  0.29143246  0.91716142    -0.06000
C741        C  0.12895645  0.25783718  0.91331127     0.00000
C742        C  0.12413361  0.23066480  0.92783586    -0.08500
C743        C  0.14185629  0.19481920  0.92584959     0.61900
H744        H  0.09765817  0.21688782  0.95576617     0.12600
H745        H  0.11793339  0.31233139  0.90625809     0.12600
C746        C  0.08020225  0.33618539  0.93787894     0.62100
F747        F  0.13669290  0.17434616  0.94283842    -0.23100
F748        F  0.17837016  0.19952992  0.92328614    -0.20400
F749        F  0.12756828  0.17634355  0.90959418    -0.20100
F750        F  0.08623999  0.34704236  0.95755085    -0.20100
F751        F  0.04393343  0.33690497  0.93375906    -0.20400
F752        F  0.09713172  0.36058762  0.92549770    -0.23100
C753        C  0.39510188  0.28261677  0.94100443    -0.05900
C754        C  0.41336595  0.25191534  0.94631208     0.00000
C755        C  0.41038447  0.22113187  0.93414766    -0.08600
C756        C  0.39176085  0.22327571  0.91579201    -0.06000
C757        C  0.37432344  0.25451685  0.90994399     0.00000
C758        C  0.37434970  0.28413988  0.92340442    -0.08500
C759        C  0.35140625  0.31652137  0.92009600     0.61900
H760        H  0.39718104  0.30549197  0.95097315     0.12600
H761        H  0.39067882  0.20032234  0.90587563     0.12600
C762        C  0.42636880  0.18625480  0.94072046     0.62100
F763        F  0.35153568  0.33881793  0.93676249    -0.23100
F764        F  0.31632965  0.30577868  0.91665999    -0.20400
F765        F  0.36410436  0.33583711  0.90394182    -0.20100
F766        F  0.42085706  0.15955985  0.92655424    -0.20100
F767        F  0.41054352  0.17554628  0.95850400    -0.20400
F768        F  0.46282534  0.19036517  0.94370078    -0.23100
C769        C  0.32028657  0.99776035  0.29725393    -0.05900
C770        C  0.35057049  0.49122413  0.28351067     0.00000
C771        C  0.34777208  0.48780704  0.26266473    -0.08600
C772        C  0.31409381  0.49184710  0.25381759    -0.06000
C773        C  0.28162341  0.49649615  0.26487712     0.00000
C774        C  0.28531407  0.99699857  0.28885269    -0.08500
C775        C  0.25547516  0.00256033  0.30444714     0.61900
H776        H  0.32423477  0.00278757  0.31318036     0.12600
H777        H  0.31338137  0.49281483  0.23761467     0.12600
C778        C  0.38068228  0.48141944  0.24978901     0.62100
F779        F  0.26690181  0.99419089  0.32366190    -0.23100
F780        F  0.22420697  0.48268112  0.29773724    -0.20400
F781        F  0.24559191  0.03771381  0.30516747    -0.20100
F782        F  0.39634120  0.44993071  0.25543178    -0.20100
F783        F  0.40583184  0.00151126  0.25304894    -0.20400
F784        F  0.37238085  0.47896294  0.22950869    -0.23100
C785        C  0.20103225  0.02895581  0.27295793    -0.05900
C786        C  0.20938843  0.50328655  0.26045056     0.00000
C787        C  0.17756142  0.48126878  0.25729827    -0.08600
C788        C  0.14973766  0.48360865  0.27150863    -0.06000
C789        C  0.14745016  0.51135365  0.28549211     0.00000
C790        C  0.16976715  0.03253321  0.28462749    -0.08500
C791        C  0.16141881  0.06869594  0.29369113     0.61900
H792        H  0.21920996  0.05134524  0.27200328     0.12600
H793        H  0.12791978  0.46424409  0.27087574     0.12600
C794        C  0.16769677  0.45623207  0.23971534     0.62100
F795        F  0.18648053  0.09439902  0.28836641    -0.23100
F796        F  0.17049296  0.56179814  0.31832183    -0.20400
F797        F  0.12847633  0.07974615  0.28675867    -0.20100
F798        F  0.16963008  0.42129748  0.24583634    -0.20100
F799        F  0.18647382  0.95683422  0.22542691    -0.20400
F800        F  0.13260924  0.46223416  0.23398101    -0.23100
C801        C  0.22234812  0.03712976  0.22539655    -0.05900
C802        C  0.25051636  0.03212155  0.23948922     0.00000
C803        C  0.27595416  0.06179014  0.24111072    -0.08600
C804        C  0.27641300  0.08786774  0.22598214    -0.06000
C805        C  0.24799530  0.09264186  0.21273979     0.00000
C806        C  0.21985550  0.06696577  0.21265832    -0.08500
C807        C  0.18756775  0.07019281  0.19892768     0.61900
H808        H  0.20131352  0.01737892  0.22468584     0.12600
H809        H  0.29782036  0.10765034  0.22591578     0.12600
C810        C  0.29863162  0.07284099  0.25940617     0.62100
F811        F  0.16514722  0.04061319  0.19981922    -0.23100
F812        F  0.19873548  0.07383858  0.17920914    -0.20400
F813        F  0.16783966  0.09940996  0.20461449    -0.20100
F814        F  0.33239276  0.05866070  0.25826828    -0.20100
F815        F  0.28227521  0.06418348  0.27711169    -0.20400
F816        F  0.30318460  0.10947143  0.26050035    -0.23100
C817        C  0.24899393  0.39851456  0.23207769    -0.05900
C818        C  0.25696284  0.40213207  0.21187861     0.00000
C819        C  0.26355205  0.43612473  0.20399697    -0.08600
C820        C  0.26072402  0.46601452  0.21684535    -0.06000
C821        C  0.25069577  0.46366270  0.23755819     0.00000
C822        C  0.24765918  0.42770073  0.24549940    -0.08500
C823        C  0.24486826  0.41748015  0.26769645     0.61900
H824        H  0.24491731  0.37159028  0.23730948     0.12600
H825        H  0.26756260  0.49140898  0.21049682     0.12600
C826        C  0.27278672  0.44061064  0.18190352     0.62100
F827        F  0.24084706  0.38116495  0.27039586    -0.23100
F828        F  0.21557948  0.43217806  0.27659402    -0.20400
F829        F  0.27571819  0.42711495  0.27779425    -0.20100
F830        F  0.24486045  0.42756380  0.17016257    -0.20100
F831        F  0.30347326  0.42205215  0.17738214    -0.20400
F832        F  0.27872678  0.47586909  0.17696148    -0.23100
C833        C  0.24836288  0.99617001  0.25257366    -0.02700
N834        N  0.05311527  0.76307854  0.00092751    -0.36800
N835        N  0.50032255  0.74390841  0.03116120    -0.57300
N836        N  0.44489592  0.73886370  0.99976663    -0.36800
N837        N  0.49681434  0.76109135  0.95606263    -0.57300
C838        C  0.07490957  0.75411337  0.01613186     0.26800
C839        C  0.07348241  0.76878929  0.98446784     0.26800
C840        C  0.42425004  0.73188759  0.01591673     0.26800
C841        C  0.42329255  0.73912465  0.98345809     0.26800
C842        C  0.02747268  0.74056468  0.04177856     0.35400
C843        C  0.47124626  0.73958691  0.04297905     0.35400
C844        C  0.02340803  0.78610374  0.96346285     0.35400
C845        C  0.46485193  0.77239639  0.96284834     0.35400
C846        C  0.11014160  0.75512206  0.00941705    -0.22100
C847        C  0.10915521  0.76374605  0.98920981    -0.22100
C848        C  0.38907184  0.72629452  0.00956175    -0.22100
C849        C  0.38860428  0.73030856  0.98891975    -0.22100
C850        C  0.01621521  0.73792180  0.06158551    -0.23100
C851        C  0.48101351  0.74357864  0.06307101    -0.23100
C852        C  0.00726112  0.81110384  0.97569140    -0.23100
C853        C  0.46894311  0.80299551  0.97437437    -0.23100
C854        C  0.06364419  0.74612637  0.03591469    -0.18500
C855        C  0.05933712  0.77670531  0.96532206    -0.18500
C856        C  0.43488360  0.74990322  0.96428766    -0.18500
C857        C  0.43560238  0.73315859  0.03625436    -0.18500
H858        H  0.13395722  0.74954061  0.01806416     0.14400
H859        H  0.13193472  0.76624425  0.97924587     0.14400
H860        H  0.36593660  0.72086699  0.01889701     0.14400
H861        H  0.36522199  0.72899603  0.97928987     0.14400
H862        H  0.03238809  0.73960155  0.07509346     0.12700
H863        H  0.46406768  0.74152831  0.07621682     0.12700
H864        H  0.02047854  0.82984257  0.98578793     0.12700
H865        H  0.44848058  0.81610049  0.98311614     0.12700
H866        H  0.02560649  0.76571946  0.00167799     0.26000
H867        H  0.47222695  0.74417256  0.99947077     0.26000
C868        C  0.24740999  0.50137481  0.75280466    -0.02700
C869        C  0.99571572  0.75103183  0.75215344    -0.02700
N870        N  0.26248195  0.94700076  0.00042086    -0.36800
N871        N  0.25393858  0.49706468  0.03078408    -0.57300
N872        N  0.25496337  0.55233968  0.99998430    -0.36800
N873        N  0.25831978  0.49800977  0.96996497    -0.57300
C874        C  0.27069398  0.92726593  0.01663886     0.26800
C875        C  0.27160068  0.92814379  0.98391660     0.26800
C876        C  0.26467578  0.57138514  0.01645126     0.26800
C877        C  0.26280535  0.57229156  0.98370756     0.26800
C878        C  0.25676114  0.97237519  0.04270510     0.35400
C879        C  0.24719334  0.52635433  0.04184420     0.35400
C880        C  0.25694041  0.97339791  0.95794615     0.35400
C881        C  0.25197877  0.52591798  0.95781014     0.35400
C882        C  0.28508820  0.89528444  0.01039153    -0.22100
C883        C  0.28546670  0.89574638  0.98964904    -0.22100
C884        C  0.27853965  0.60411969  0.01061401    -0.22100
C885        C  0.27703210  0.60481766  0.98987731    -0.22100
C886        C  0.24702247  0.98284525  0.06196782    -0.23100
C887        C  0.23304263  0.51693379  0.06037468    -0.23100
C888        C  0.24842836  0.98282986  0.93839569    -0.23100
C889        C  0.24461042  0.51414809  0.93842601    -0.23100
C890        C  0.26342986  0.93693262  0.03676433    -0.18500
C891        C  0.26570184  0.93861139  0.96386897    -0.18500
C892        C  0.25593779  0.56196019  0.96358969    -0.18500
C893        C  0.25840767  0.56091843  0.03651235    -0.18500
H894        H  0.29377402  0.87368090  0.01978594     0.14400
H895        H  0.29462188  0.87457513  0.97989297     0.14400
H896        H  0.28808123  0.62551351  0.02029806     0.14400
H897        H  0.28550311  0.62669682  0.98046293     0.14400
H898        H  0.24117392  0.96608646  0.07473887     0.12700
H899        H  0.22602250  0.53446151  0.07270243     0.12700
H900        H  0.24613471  0.96575891  0.92526119     0.12700
H901        H  0.23945773  0.53005216  0.92527167     0.12700
H902        H  0.24745899  0.96998940  0.00053447     0.26000
H903        H  0.24001079  0.52880367  0.99995931     0.26000
N904        N  0.23334163  0.83108255  0.86523368    -0.06300
N905        N  0.22272226  0.84854305  0.88139960    -0.58400
N906        N  0.26470461  0.83065043  0.81857433    -0.06000
N907        N  0.27605073  0.85437530  0.80541460    -0.60500
N908        N  0.22946528  0.82989409  0.81914326    -0.05600
N909        N  0.21643767  0.85325906  0.80644966    -0.58400
N910        N  0.26845087  0.83102806  0.86443274    -0.05200
N911        N  0.28240449  0.84836033  0.87990981    -0.60900
C912        C  0.25361353  0.85902467  0.89050620     0.95900
C913        C  0.24567959  0.86836451  0.79781110     0.95700
N914        N  0.32538691  0.73718805  0.81779641    -0.06500
N915        N  0.34861960  0.72594439  0.80425023    -0.59000
N916        N  0.32695861  0.77293440  0.86433621    -0.04600
N917        N  0.34333914  0.78527412  0.88069050    -0.60200
N918        N  0.32716961  0.73801963  0.86413161    -0.06500
N919        N  0.34353597  0.72596640  0.88021786    -0.59200
N920        N  0.32454226  0.77213477  0.81776656    -0.04200
N921        N  0.34656219  0.78517021  0.80412014    -0.60300
Mn922      Mn  0.29692799  0.80230969  0.84112969     1.18400
C923        C  0.36098716  0.75616717  0.79548179     0.98000
C924        C  0.35348415  0.75560391  0.89052242     0.98600
N925        N  0.16820132  0.76802238  0.82175500    -0.06500
N926        N  0.14256696  0.77834079  0.80946412    -0.62800
N927        N  0.17444659  0.73704385  0.86861973    -0.05300
N928        N  0.15668079  0.72637302  0.88471248    -0.63500
N929        N  0.17431652  0.77188951  0.86757373    -0.06000
N930        N  0.15666037  0.78548926  0.88287457    -0.63100
N931        N  0.16823893  0.73306666  0.82275456    -0.04900
N932        N  0.14277020  0.71920737  0.81119155    -0.63800
Mn933      Mn  0.20059601  0.80093128  0.84315409     1.10700
C934        C  0.12688187  0.74758652  0.80285892     0.99200
C935        C  0.14572641  0.75690615  0.89357878     0.99300
N936        N  0.26932578  0.67881064  0.86631887    -0.06000
N937        N  0.28360996  0.66275446  0.88192868    -0.61400
N938        N  0.22925864  0.67449717  0.82137109    -0.05400
N939        N  0.21565242  0.65071642  0.80862913    -0.58100
N940        N  0.26444770  0.67555391  0.81989484    -0.06700
N941        N  0.27528343  0.65246921  0.80617083    -0.61000
N942        N  0.23426880  0.67871801  0.86784278    -0.05600
N943        N  0.22414345  0.66247666  0.88450014    -0.58200
Mn944      Mn  0.29737333  0.70659123  0.84169937     1.20200
Mn945      Mn  0.20088434  0.70498478  0.84511670     1.10100
Cl946      Cl  0.24884960  0.75368687  0.84246506    -0.86100
C947        C  0.25525814  0.65261613  0.89328096     0.96200
C948        C  0.24456225  0.63767021  0.79891836     0.96000
N949        N  0.23765686  0.82787336  0.18024616    -0.06300
N950        N  0.22552962  0.85311636  0.19225272    -0.58400
N951        N  0.27525920  0.82444127  0.13484623    -0.06000
N952        N  0.28952585  0.84145279  0.11950851    -0.60500
N953        N  0.24011802  0.82525365  0.13398785    -0.05600
N954        N  0.22982946  0.84281949  0.11785120    -0.58400
N955        N  0.27293527  0.82751300  0.18071092    -0.05200
N956        N  0.28543205  0.85250410  0.19302568    -0.60900
C957        C  0.25557754  0.86797066  0.20021652     0.95900
C958        C  0.26106717  0.85308749  0.10905716     0.95700
N959        N  0.33096858  0.72972429  0.13633074    -0.06500
N960        N  0.34664548  0.71642383  0.12026849    -0.59000
N961        N  0.33087780  0.76586115  0.18210374    -0.04600
N962        N  0.35524960  0.77756824  0.19506305    -0.60200
N963        N  0.32936397  0.73089883  0.18215732    -0.06500
N964        N  0.35267416  0.71840249  0.19504929    -0.59200
N965        N  0.33192479  0.76455929  0.13596389    -0.04200
N966        N  0.34838297  0.77558485  0.11957441    -0.60300
Mn967      Mn  0.30353554  0.79626468  0.15861781     1.18400
C968        C  0.35742788  0.74529813  0.10982887     0.98000
C969        C  0.36844547  0.74760718  0.20327448     0.98600
N970        N  0.17916542  0.76774733  0.13353329    -0.06500
N971        N  0.16207763  0.78062561  0.11792007    -0.62800
N972        N  0.17494744  0.73203133  0.17934612    -0.05300
N973        N  0.15141036  0.71958605  0.19242211    -0.63500
N974        N  0.17552288  0.76710657  0.17965417    -0.06000
N975        N  0.15207509  0.77902318  0.19291679    -0.63100
N976        N  0.17809045  0.73287345  0.13315197    -0.04900
N977        N  0.16004750  0.72139228  0.11723298    -0.63800
Mn978      Mn  0.20727725  0.79772255  0.15706852     1.10700
C979        C  0.15002075  0.75154197  0.10785130     0.99200
C980        C  0.13761749  0.74909510  0.20095459     0.99300
N981        N  0.26809584  0.67041557  0.18060761    -0.06000
N982        N  0.27906442  0.64509871  0.19270609    -0.61400
N983        N  0.23636995  0.67385331  0.13342642    -0.05400
N984        N  0.22543881  0.65887031  0.11644133    -0.58100
N985        N  0.27144881  0.67314369  0.13463051    -0.06700
N986        N  0.28511587  0.65783150  0.11853347    -0.61000
N987        N  0.23289496  0.67021106  0.17954364    -0.05600
N988        N  0.21937988  0.64467608  0.19091356    -0.58200
Mn989      Mn  0.30060119  0.70045578  0.15879185     1.20200
Mn990      Mn  0.20470665  0.70151780  0.15647749     1.10100
Cl991      Cl  0.25394505  0.74903483  0.15809299    -0.86100
C992        C  0.24842418  0.62915873  0.19906603     0.96200
C993        C  0.25615304  0.64922187  0.10722544     0.96000
N994        N  0.07555709  0.51614451  0.68281859    -0.06300
N995        N  0.09789755  0.52881163  0.69664433    -0.58400
N996        N  0.07331958  0.97877473  0.63603455    -0.06000
N997        N  0.08814235  0.96520907  0.61974989    -0.60500
N998        N  0.07681376  0.51238351  0.63643004    -0.05600
N999        N  0.09471126  0.52330312  0.62050088    -0.58400
N1000       N  0.07649710  0.98132397  0.68224583    -0.05200
N1001       N  0.10036191  0.96969418  0.69527175    -0.60900
C1002       C  0.11013141  0.49951980  0.70597893     0.95900
C1003       C  0.10463538  0.49295944  0.61122834     0.95700
N1004       N  0.47591606  0.92715017  0.63644189    -0.06500
N1005       N  0.46170125  0.90880271  0.62135130    -0.59000
N1006       N  0.01264672  0.92138451  0.68280261    -0.04600
N1007       N  0.02347158  0.89537024  0.69452323    -0.60200
N1008       N  0.47827444  0.92813116  0.68226693    -0.06500
N1009       N  0.46550566  0.90299808  0.69414697    -0.59200
N1010       N  0.01207352  0.92240403  0.63658309    -0.04200
N1011       N  0.02291509  0.90487588  0.62043906    -0.60300
Mn1012     Mn  0.04452379  0.95024490  0.65972276     1.18400
C1013       C  0.49037324  0.89656622  0.61118586     0.98000
C1014       C  0.49509916  0.88653254  0.70084087     0.98600
N1015       N  0.01969771  0.57065879  0.63363033    -0.06500
N1016       N  0.03263561  0.58398090  0.61676030    -0.62800
N1017       N  0.47682975  0.58597971  0.67823517    -0.05300
N1018       N  0.46563113  0.61296646  0.68926035    -0.63500
N1019       N  0.01894549  0.57984640  0.67957730    -0.06000
N1020       N  0.03183945  0.60707120  0.69023936    -0.63100
N1021       N  0.47495459  0.57734415  0.63234869    -0.04900
N1022       N  0.46164122  0.58892306  0.61531600    -0.63800
Mn1023     Mn  0.04860570  0.54540909  0.65839754     1.10700
C1024       C  0.49074391  0.59588246  0.60393979     0.99200
C1025       C  0.49615705  0.62940847  0.69563856     0.99300
N1026       N  0.42049119  0.99200789  0.68219264    -0.06000
N1027       N  0.39491517  0.98271470  0.69491018    -0.61400
N1028       N  0.41511529  0.52134472  0.63461296    -0.05400
N1029       N  0.40156476  0.53276517  0.61754907    -0.58100
N1030       N  0.42083721  0.98771913  0.63620238    -0.06700
N1031       N  0.40486328  0.97489467  0.61995910    -0.61000
N1032       N  0.41508193  0.52609265  0.68092013    -0.05600
N1033       N  0.39224535  0.54041214  0.69365877    -0.58200
Mn1034     Mn  0.44804124  0.95812533  0.65964769     1.20200
Mn1035     Mn  0.44480217  0.55330401  0.65689137     1.10100
Cl1036     Cl  0.49156049  0.50478308  0.65803526    -0.86100
C1037       C  0.37676697  0.51213287  0.70271620     0.96200
C1038       C  0.39292973  0.50269162  0.60734106     0.96000
N1039       N  0.47989627  0.91856877  0.32165383    -0.06300
N1040       N  0.46853915  0.89384207  0.30876115    -0.58400
N1041       N  0.01253229  0.92222409  0.36690259    -0.06000
N1042       N  0.02301849  0.90720076  0.38373827    -0.60500
N1043       N  0.47579410  0.92434190  0.36759098    -0.05600
N1044       N  0.46090417  0.91008029  0.38362087    -0.58400
N1045       N  0.01777724  0.92015548  0.32071378    -0.05200
N1046       N  0.03136067  0.89639371  0.30832136    -0.60900
C1047       C  0.49909579  0.87927637  0.30157475     0.95900
C1048       C  0.48900738  0.90023534  0.39493873     0.95700
N1049       N  0.07307047  0.51762176  0.36770278    -0.06500
N1050       N  0.08841913  0.52899458  0.38450153    -0.59000
N1051       N  0.07822284  0.98105589  0.32241251    -0.04600
N1052       N  0.10209676  0.97005132  0.30914166    -0.60200
N1053       N  0.07807626  0.52249939  0.32171760    -0.06500
N1054       N  0.10169342  0.53732280  0.30944259    -0.59200
N1055       N  0.07199804  0.98020915  0.36851539    -0.04200
N1056       N  0.08670228  0.96744339  0.38485559    -0.60300
Mn1057     Mn  0.04600268  0.95005844  0.34442432     1.18400
C1058       C  0.09675005  0.99666150  0.39551173     0.98000
C1059       C  0.11633903  0.00058449  0.30154637     0.98600
N1060       N  0.41923035  0.98385047  0.36540077    -0.06500
N1061       N  0.40200233  0.97384374  0.38183007    -0.62800
N1062       N  0.42119362  0.51187231  0.31597420    -0.05300
N1063       N  0.39830515  0.52287164  0.30232259    -0.63500
N1064       N  0.42199697  0.97935350  0.31892897    -0.06000
N1065       N  0.39941769  0.96571229  0.30558773    -0.63100
N1066       N  0.41715636  0.51232973  0.36224096    -0.04900
N1067       N  0.39954916  0.52399662  0.37812390    -0.63800
Mn1068     Mn  0.44841425  0.95079267  0.34321665     1.10700
C1069       C  0.39192882  0.00486392  0.39054457     0.99200
C1070       C  0.38613730  0.99428331  0.29616360     0.99300
N1071       N  0.01564436  0.57859256  0.32252738    -0.06000
N1072       N  0.02885366  0.60403576  0.31111269    -0.61400
N1073       N  0.47396321  0.57310047  0.36439475    -0.05400
N1074       N  0.45903539  0.59070868  0.37930834    -0.58100
N1075       N  0.01165969  0.57334758  0.36824094    -0.06700
N1076       N  0.02170895  0.59120929  0.38450236    -0.61000
N1077       N  0.48026852  0.57485513  0.31856137    -0.05600
N1078       N  0.46953482  0.59850172  0.30531934    -0.58200
Mn1079     Mn  0.04529051  0.54865183  0.34501233     1.20200
Mn1080     Mn  0.44727094  0.54372886  0.34000775     1.10100
Cl1081     Cl  0.49815544  0.99780364  0.34340228    -0.86100
C1082       C  0.50034325  0.61380847  0.29870939     0.96200
C1083       C  0.48704535  0.60271892  0.39043305     0.96000
N1084       N  0.99622079  0.80464790  0.50091934    -0.36800
N1085       N  0.00123835  0.75063776  0.53150169    -0.57300
N1086       N  0.00021803  0.69507667  0.50168465    -0.36800
N1087       N  0.99472208  0.74893646  0.47107931    -0.57300
C1088       C  0.98645028  0.82283074  0.51757636     0.26800
C1089       C  0.98310217  0.82199323  0.48485235     0.26800
C1090       C  0.99242219  0.67627258  0.51835521     0.26800
C1091       C  0.98948859  0.67539779  0.48567338     0.26800
C1092       C  0.00910393  0.78012786  0.54239427     0.35400
C1093       C  0.01033492  0.72269219  0.54294369     0.35400
C1094       C  0.99988749  0.77757314  0.45928371     0.35400
C1095       C  0.00289479  0.72030338  0.45975250     0.35400
C1096       C  0.96662361  0.85209053  0.51207997    -0.22100
C1097       C  0.96496280  0.85184523  0.49130188    -0.22100
C1098       C  0.97678076  0.64392850  0.51290979    -0.22100
C1099       C  0.97473801  0.64345782  0.49216240    -0.22100
C1100       C  0.02390040  0.77087380  0.56075534    -0.23100
C1101       C  0.02457486  0.73438053  0.56112019    -0.23100
C1102       C  0.01186798  0.76719212  0.44043425    -0.23100
C1103       C  0.01376147  0.73079440  0.44072761    -0.23100
C1104       C  0.99737043  0.81443966  0.53730279    -0.18500
C1105       C  0.98928252  0.81215790  0.46464136    -0.18500
C1106       C  0.99561325  0.68493745  0.46550315    -0.18500
C1107       C  0.00131369  0.68714476  0.53811637    -0.18500
H1108       H  0.95534798  0.87196822  0.52198097     0.14400
H1109       H  0.95199525  0.87135930  0.48201960     0.14400
H1110       H  0.96810779  0.62281380  0.52282070     0.14400
H1111       H  0.96440424  0.62183043  0.48290473     0.14400
H1112       H  0.03177441  0.78853186  0.57297072     0.12700
H1113       H  0.03312186  0.71828974  0.57361592     0.12700
H1114       H  0.01726606  0.78394784  0.42760060     0.12700
H1115       H  0.02096259  0.71389162  0.42815549     0.12700
H1116       H  0.01433620  0.78385624  0.50044774     0.26000
H1117       H  0.01586375  0.71817581  0.50110885     0.26000
N1118       N  0.19259526  0.47597990  0.50136328    -0.36800
N1119       N  0.25016724  0.48285069  0.52960533    -0.57300
N1120       N  0.30374082  0.48226014  0.49806677    -0.36800
N1121       N  0.24594320  0.47528194  0.46977410    -0.57300
C1122       C  0.17496097  0.48639161  0.51807733     0.26800
C1123       C  0.17252443  0.48491805  0.48536750     0.26800
C1124       C  0.32244538  0.49710827  0.51345078     0.26800
C1125       C  0.32026154  0.49170783  0.48083989     0.26800
C1126       C  0.22312509  0.47301420  0.54190220     0.35400
C1127       C  0.28064340  0.47871384  0.54016008     0.35400
C1128       C  0.21603289  0.46758882  0.45909554     0.35400
C1129       C  0.27388058  0.46870294  0.45748632     0.35400
C1130       C  0.14275676  0.50155588  0.51273303    -0.22100
C1131       C  0.14123873  0.50070178  0.49195618    -0.22100
C1132       C  0.35163293  0.51595454  0.50599806    -0.22100
C1133       C  0.35020464  0.51260944  0.48528123    -0.22100
C1134       C  0.23651674  0.46173212  0.56018849    -0.23100
C1135       C  0.27306897  0.46546555  0.55910459    -0.23100
C1136       C  0.23376415  0.97684944  0.43943517    -0.23100
C1137       C  0.27020083  0.98062471  0.43951456    -0.23100
C1138       C  0.18680557  0.47983918  0.53785109    -0.18500
C1139       C  0.18128713  0.47713450  0.46518825    -0.18500
C1140       C  0.30933519  0.48031833  0.46146952    -0.18500
C1141       C  0.31420887  0.49213955  0.53393605    -0.18500
H1142       H  0.12242521  0.51176308  0.52273215     0.14400
H1143       H  0.11943623  0.51012673  0.48277919     0.14400
H1144       H  0.37181867  0.53042509  0.51457598     0.14400
H1145       H  0.36911234  0.52397455  0.47472208     0.14400
H1146       H  0.22142082  0.45334641  0.57324819     0.12700
H1147       H  0.29182648  0.46046330  0.57114601     0.12700
H1148       H  0.21750710  0.97086154  0.42632159     0.12700
H1149       H  0.28733875  0.97814041  0.42647812     0.12700
H1150       H  0.21529645  0.46023153  0.50098831     0.26000
H1151       H  0.28289068  0.46371574  0.49935753     0.26000
C1152       C  0.00672747  0.74631892  0.25185664    -0.02700
C1153       C  0.03241253  0.80777396  0.26377333    -0.05900
C1154       C  0.50103442  0.78136671  0.26527481     0.00000
C1155       C  0.46917001  0.79230257  0.27618152    -0.08600
C1156       C  0.47018565  0.82453175  0.28737749    -0.06000
C1157       C  0.50060752  0.84653668  0.28873527     0.00000
C1158       C  0.03260020  0.84046363  0.27407269    -0.08500
C1159       C  0.06317823  0.86693578  0.27048350     0.61900
H1160       H  0.05486768  0.80347456  0.25410898     0.12600
H1161       H  0.44644992  0.83324378  0.29520968     0.12600
C1162       C  0.43237884  0.77357501  0.27568952     0.62100
F1163       F  0.08317635  0.85810777  0.25368600    -0.23100
F1164       F  0.08584561  0.86762006  0.28695072    -0.20400
F1165       F  0.04987600  0.90058395  0.26736796    -0.20100
F1166       F  0.43462919  0.73719591  0.27601131    -0.20100
F1167       F  0.41352541  0.78392546  0.25891326    -0.20400
F1168       F  0.41189993  0.78269821  0.29225635    -0.23100
C1169       C  0.00687205  0.64650644  0.26994565    -0.05900
C1170       C  0.50172218  0.64738896  0.28722129     0.00000
C1171       C  0.49848348  0.68086560  0.29656001    -0.08600
C1172       C  0.50000387  0.71161912  0.28463204    -0.06000
C1173       C  0.50484977  0.71083749  0.26338044     0.00000
C1174       C  0.01153955  0.67562979  0.25694188    -0.08500
C1175       C  0.02123412  0.66614974  0.23513137     0.61900
H1176       H  0.00848630  0.61949590  0.26430774     0.12600
H1177       H  0.49748634  0.73665730  0.29235805     0.12600
C1178       C  0.49382877  0.68399673  0.31922845     0.62100
F1179       F  0.01726565  0.63010416  0.23117187    -0.23100
F1180       F  0.05672555  0.67459661  0.23156111    -0.20400
F1181       F  0.99984309  0.68295749  0.22142492    -0.20100
F1182       F  0.52170593  0.66732587  0.32888117    -0.20100
F1183       F  0.46179843  0.66808453  0.32482516    -0.20400
F1184       F  0.49360520  0.71904021  0.32573641    -0.23100
C1185       C  0.01628696  0.61443838  0.42641558    -0.05900
C1186       C  0.48445686  0.62329127  0.40953610     0.00000
C1187       C  0.45177550  0.63637074  0.41759654    -0.08600
C1188       C  0.45305680  0.65620461  0.43554415    -0.06000
C1189       C  0.99155578  0.65806571  0.44921573     0.00000
C1190       C  0.01918631  0.63428940  0.44431872    -0.08500
C1191       C  0.05274346  0.63188300  0.45713224     0.61900
H1192       H  0.03711545  0.59592520  0.42247540     0.12600
H1193       H  0.42893934  0.66754928  0.44176426     0.12600
C1194       C  0.41571293  0.63026872  0.40751956     0.62100
F1195       F  0.07662951  0.60756012  0.44937319    -0.23100
F1196       F  0.04396611  0.62142440  0.47639130    -0.20400
F1197       F  0.06979549  0.66474017  0.45796252    -0.20100
F1198       F  0.40852889  0.59422509  0.40637494    -0.20100
F1199       F  0.41604595  0.64485195  0.38847935    -0.20400
F1200       F  0.38802048  0.64569355  0.41815246    -0.23100
C1201       C  0.01515568  0.86182639  0.44520686    -0.05900
C1202       C  0.98600937  0.83889198  0.44841033     0.00000
C1203       C  0.44785723  0.84366264  0.43590520    -0.08600
C1204       C  0.45320540  0.86299458  0.41814189    -0.06000
C1205       C  0.48474096  0.88297938  0.41484129     0.00000
C1206       C  0.01758690  0.88294176  0.42789015    -0.08500
C1207       C  0.04997089  0.90717147  0.42545755     0.61900
H1208       H  0.03697149  0.86165555  0.45596973     0.12600
H1209       H  0.43318378  0.86155208  0.40635843     0.12600
C1210       C  0.41326723  0.82263880  0.43898369     0.62100
F1211       F  0.06922283  0.91062022  0.44319379    -0.23100
F1212       F  0.03935825  0.94081242  0.41997211    -0.20400
F1213       F  0.07224102  0.89308641  0.41094412    -0.20100
F1214       F  0.38936488  0.82745578  0.42333266    -0.20100
F1215       F  0.39716567  0.83384778  0.45659696    -0.20400
F1216       F  0.41992191  0.78670930  0.44023216    -0.23100
C1217       C  0.12745149  0.96065911  0.42075302    -0.05900
C1218       C  0.11650067  0.99467517  0.41481619     0.00000
C1219       C  0.13885159  0.52439967  0.42180547    -0.08600
C1220       C  0.15774271  0.51735673  0.43958752    -0.06000
C1221       C  0.15901098  0.98555153  0.44918136     0.00000
C1222       C  0.14725545  0.95537419  0.43828725    -0.08500
C1223       C  0.15525069  0.91795058  0.44532192     0.61900
H1224       H  0.12090757  0.93791159  0.41139695     0.12600
H1225       H  0.17605734  0.53708243  0.44589510     0.12600
C1226       C  0.14363984  0.56048433  0.41198330     0.62100
F1227       F  0.14042612  0.89230988  0.43264869    -0.23100
F1228       F  0.14104107  0.91312889  0.46432616    -0.20400
F1229       F  0.15883179  0.40412577  0.45098960    -0.20100
F1230       F  0.07375923  0.05983271  0.42108428    -0.20100
F1231       F  0.15673076  0.55633718  0.39266432    -0.20400
F1232       F  0.16748972  0.58221186  0.42251612    -0.23100
C1233       C  0.38486604  0.98236960  0.42526911    -0.05900
C1234       C  0.37553923  0.00772264  0.41080922     0.00000
C1235       C  0.34115023  0.51521606  0.41147447    -0.08600
C1236       C  0.32403074  0.51201753  0.43016386    -0.06000
C1237       C  0.34157267  0.00644346  0.44868116     0.00000
C1238       C  0.36784461  0.98089692  0.44413372    -0.08500
C1239       C  0.37669167  0.95142613  0.45876078     0.61900
H1240       H  0.40479033  0.96285119  0.42138931     0.12600
H1241       H  0.30155349  0.52878297  0.43377691     0.12600
C1242       C  0.32580105  0.53995574  0.39578292     0.62100
F1243       F  0.40046387  0.41329211  0.44628556    -0.23100
F1244       F  0.34229433  0.40877389  0.45429400    -0.20400
F1245       F  0.39022344  0.96588273  0.47641974    -0.20100
F1246       F  0.32025074  0.52164174  0.37788322    -0.20100
F1247       F  0.36151744  0.08447997  0.39515733    -0.20400
F1248       F  0.30628616  0.07809333  0.40747989    -0.23100
C1249       C  0.11396232  0.46578634  0.57755261    -0.05900
C1250       C  0.12428868  0.49162675  0.59189293     0.00000
C1251       C  0.15367742  0.51468944  0.58777013    -0.08600
C1252       C  0.17129204  0.51127325  0.56922828    -0.06000
C1253       C  0.16225928  0.48425902  0.55532551     0.00000
C1254       C  0.13292995  0.46102717  0.55945501    -0.08500
C1255       C  0.12073567  0.43053382  0.54580932     0.61900
H1256       H  0.09132385  0.44837230  0.58078427     0.12600
H1257       H  0.15775948  0.03932426  0.55185634     0.12600
C1258       C  0.16823375  0.54105742  0.60332625     0.62100
F1259       F  0.19137115  0.91033489  0.55725835    -0.23100
F1260       F  0.14212079  0.91094252  0.53772630    -0.20400
F1261       F  0.08790465  0.43863205  0.53750594    -0.20100
F1262       F  0.13304669  0.07029615  0.60066535    -0.20100
F1263       F  0.14374681  0.56752468  0.60683164    -0.20400
F1264       F  0.19979797  0.55722040  0.59707342    -0.23100
C1265       C  0.34968291  0.52684755  0.58328549    -0.05900
C1266       C  0.37710220  0.50267828  0.58691208     0.00000
C1267       C  0.38176643  0.97528977  0.57543603    -0.08600
C1268       C  0.36168146  0.97706404  0.55767335    -0.06000
C1269       C  0.34046977  0.50210944  0.54987266     0.00000
C1270       C  0.33225455  0.52804908  0.56463673    -0.08500
C1271       C  0.30464218  0.55658842  0.56143816     0.61900
H1272       H  0.34159778  0.54489432  0.59519127     0.12600
H1273       H  0.36053250  0.95458181  0.54738385     0.12600
C1274       C  0.40438582  0.94274835  0.57911678     0.62100
F1275       F  0.31767932  0.58873723  0.56886976    -0.23100
F1276       F  0.27349855  0.54773872  0.57155969    -0.18800
F1277       F  0.29690341  0.56116629  0.54127460    -0.20100
F1278       F  0.38967655  0.92301555  0.59454730    -0.20100
F1279       F  0.43902008  0.95312621  0.58402863    -0.20400
F1280       F  0.40610068  0.92093449  0.56226552    -0.23100
C1281       C  0.46088669  0.63845821  0.58206655    -0.05900
C1282       C  0.48836730  0.61360280  0.58423251     0.00000
C1283       C  0.03157012  0.61467333  0.57325551    -0.08600
C1284       C  0.02957178  0.63844004  0.55703524    -0.06000
C1285       C  0.00014942  0.66068217  0.55453819     0.00000
C1286       C  0.45737306  0.65859518  0.56461255    -0.08500
C1287       C  0.42422899  0.68113137  0.56236797     0.61900
H1288       H  0.44170442  0.64221680  0.59410347     0.12600
H1289       H  0.05138271  0.64052735  0.54636394     0.12600
C1290       C  0.06362158  0.59045223  0.57485209     0.62100
F1291       F  0.39416476  0.66086373  0.56701279    -0.23100
F1292       F  0.41971379  0.69350458  0.54300891    -0.20400
F1293       F  0.42635291  0.70980722  0.57545467    -0.20100
F1294       F  0.05210349  0.55556008  0.57693891    -0.20100
F1295       F  0.08437042  0.60038558  0.59122309    -0.20400
F1296       F  0.08510424  0.59218424  0.55790497    -0.23100
C1297       C  0.01482443  0.88679123  0.57647496    -0.05900
C1298       C  0.48827030  0.87591196  0.59216083     0.00000
C1299       C  0.46396560  0.84700168  0.58935494    -0.08600
C1300       C  0.46472914  0.82805249  0.57105178    -0.06000
C1301       C  0.99240957  0.84023063  0.55411811     0.00000
C1302       C  0.01642554  0.86902573  0.55776667    -0.08500
C1303       C  0.04422001  0.88021159  0.54229813     0.61900
H1304       H  0.03327386  0.90856116  0.57975928     0.12600
H1305       H  0.44672862  0.80557126  0.56865323     0.12600
C1306       C  0.43868624  0.83484418  0.60591630     0.62100
F1307       F  0.06566117  0.90799595  0.54926913    -0.23100
F1308       F  0.02746670  0.89146774  0.52500120    -0.20400
F1309       F  0.06601628  0.85192275  0.53763927    -0.20100
F1310       F  0.41290446  0.86014985  0.60922202    -0.20100
F1311       F  0.45767046  0.82958582  0.62350940    -0.20400
F1312       F  0.42128158  0.80321387  0.60098189    -0.23100
C1313       C  0.04025597  0.74594406  0.21747076    -0.05900
C1314       C  0.04255288  0.74537288  0.23884982     0.00000
C1315       C  0.07855170  0.74310004  0.24724261    -0.08600
C1316       C  0.10833720  0.74528066  0.23413260    -0.06000
C1317       C  0.10472177  0.74838738  0.21338294     0.00000
C1318       C  0.07031861  0.74804939  0.20478501    -0.08500
C1319       C  0.06544696  0.75002091  0.18211814     0.61900
H1320       H  0.01454920  0.74498036  0.21023197     0.12600
H1321       H  0.13536864  0.74354014  0.23991881     0.12600
C1322       C  0.08763576  0.73586686  0.26937016     0.62100
F1323       F  0.02971560  0.74868787  0.17653907    -0.23100
F1324       F  0.08239608  0.72183039  0.17288893    -0.20400
F1325       F  0.08011094  0.78156095  0.17518136    -0.20100
F1326       F  0.08100126  0.70053227  0.27364628    -0.20100
F1327       F  0.06890548  0.75695330  0.28251159    -0.20400
F1328       F  0.12349949  0.74248149  0.27352931    -0.23100
C1329       C  0.42483797  0.77664361  0.21499151    -0.05900
C1330       C  0.40228537  0.74664314  0.21509593     0.00000
C1331       C  0.41237138  0.71694868  0.22645383    -0.08600
C1332       C  0.44483602  0.71850200  0.23704470    -0.06000
C1333       C  0.46928887  0.74803735  0.23694484     0.00000
C1334       C  0.45793183  0.77839544  0.22529406    -0.08500
C1335       C  0.47645657  0.81479487  0.22362076     0.61900
H1336       H  0.41627783  0.79964717  0.20663641     0.12600
H1337       H  0.44990162  0.69589607  0.24613850     0.12600
C1338       C  0.38868538  0.68366540  0.22812541     0.62100
F1339       F  0.45779918  0.83914282  0.23509236    -0.23100
F1340       F  0.47593446  0.82580623  0.20378650    -0.20400
F1341       F  0.51161276  0.81599147  0.22941146    -0.20100
F1342       F  0.38811341  0.66557632  0.20992372    -0.20100
F1343       F  0.35425027  0.69294356  0.23348755    -0.20400
F1344       F  0.40085547  0.66034117  0.24252220    -0.23100
C1345       C  0.28775428  0.60830097  0.08434606    -0.05900
C1346       C  0.25836239  0.63053122  0.08758757     0.00000
C1347       C  0.23235108  0.63407999  0.07217914    -0.08600
C1348       C  0.23444116  0.61208072  0.05510293    -0.06000
C1349       C  0.26194376  0.58761812  0.05286968     0.00000
C1350       C  0.29004566  0.58663329  0.06712449    -0.08500
C1351       C  0.32180706  0.56229796  0.06436154     0.61900
H1352       H  0.30817791  0.60668128  0.09586792     0.12600
H1353       H  0.21362215  0.61255836  0.04373947     0.12600
C1354       C  0.20210470  0.66026635  0.07367968     0.62100
F1355       F  0.31112983  0.52725603  0.06664410    -0.23100
F1356       F  0.34856993  0.56961431  0.07828964    -0.20400
F1357       F  0.33615648  0.56670123  0.04535751    -0.20100
F1358       F  0.21522171  0.69340348  0.07944649    -0.20100
F1359       F  0.17743563  0.64810927  0.08758220    -0.20400
F1360       F  0.18483276  0.66413325  0.05540614    -0.23100
C1361       C  0.29333903  0.91382145  0.06688028    -0.05900
C1362       C  0.26526735  0.90998064  0.05300357     0.00000
C1363       C  0.23650990  0.88621244  0.05707529    -0.08600
C1364       C  0.23670629  0.86737201  0.07531370    -0.06000
C1365       C  0.26389840  0.87261949  0.08974949     0.00000
C1366       C  0.29253538  0.89680509  0.08560162    -0.08500
C1367       C  0.32048897  0.90738905  0.10130551     0.61900
H1368       H  0.31467284  0.93262404  0.06345442     0.12600
H1369       H  0.21517552  0.84878138  0.07859693     0.12600
C1370       C  0.20525063  0.88177132  0.04256167     0.62100
F1371       F  0.34080281  0.93653504  0.09535736    -0.23100
F1372       F  0.34359653  0.87972966  0.10453145    -0.20400
F1373       F  0.30384346  0.91636944  0.11918339    -0.20100
F1374       F  0.18961024  0.91430215  0.03924384    -0.20100
F1375       F  0.17917877  0.85882592  0.04991840    -0.20400
F1376       F  0.21712045  0.86807270  0.02445654    -0.23100
C1377       C  0.28825791  0.60006301  0.93902726    -0.05900
C1378       C  0.25561750  0.58928541  0.94746337     0.00000
C1379       C  0.22330887  0.60215559  0.93944593    -0.08600
C1380       C  0.22459892  0.62266007  0.92184236    -0.06000
C1381       C  0.25721896  0.63237402  0.91261393     0.00000
C1382       C  0.28985721  0.62255242  0.92217482    -0.08500
C1383       C  0.32628105  0.63617936  0.91534567     0.61900
H1384       H  0.31260742  0.59033174  0.94576844     0.12600
H1385       H  0.19977017  0.63100963  0.91509485     0.12600
C1386       C  0.18772048  0.59440515  0.94962980     0.62100
F1387       F  0.35334085  0.62633401  0.92833486    -0.23100
F1388       F  0.32613571  0.67289748  0.91487820    -0.20400
F1389       F  0.33428489  0.62267397  0.89650447    -0.20100
F1390       F  0.18928159  0.60601366  0.96941664    -0.20100
F1391       F  0.18029577  0.55832744  0.94922593    -0.20400
F1392       F  0.15975878  0.61153312  0.94029428    -0.23100
C1393       C  0.23490635  0.89312255  0.94367735    -0.05900
C1394       C  0.26698482  0.91147737  0.94773260     0.00000
C1395       C  0.29547997  0.91031100  0.93380392    -0.08600
C1396       C  0.28967418  0.89286949  0.91537814    -0.06000
C1397       C  0.25671319  0.87616569  0.91061684     0.00000
C1398       C  0.22901831  0.87539144  0.92528286    -0.08500
C1399       C  0.19320633  0.85671093  0.92176418     0.61900
H1400       H  0.21349761  0.89498663  0.95460546     0.12600
H1401       H  0.31111800  0.89306443  0.90440029     0.12600
C1402       C  0.33164867  0.92841185  0.93723584     0.62100
F1403       F  0.17217670  0.85657338  0.93890098    -0.23100
F1404       F  0.19864772  0.82169729  0.91624965    -0.20400
F1405       F  0.17448451  0.87392091  0.90684178    -0.20100
F1406       F  0.35859407  0.90424036  0.93394273    -0.20100
F1407       F  0.33582722  0.94176931  0.95654556    -0.20400
F1408       F  0.33578054  0.95604808  0.92381661    -0.23100
C1409       C  0.02443162  0.71294257  0.72404024    -0.05900
C1410       C  0.49331247  0.72111216  0.73661584     0.00000
C1411       C  0.46850153  0.69081696  0.73810046    -0.08600
C1412       C  0.46947888  0.66406413  0.72308906    -0.06000
C1413       C  0.49669922  0.66154064  0.70891888     0.00000
C1414       C  0.02829675  0.68411259  0.71036583    -0.08500
C1415       C  0.05933798  0.68422849  0.69562427     0.61900
H1416       H  0.04395989  0.73420820  0.72361017     0.12600
H1417       H  0.44937584  0.64301466  0.72295110     0.12600
C1418       C  0.44239698  0.68173310  0.75518833     0.62100
F1419       F  0.07977395  0.71516153  0.69701133    -0.23100
F1420       F  0.04639308  0.68137546  0.67615594    -0.20400
F1421       F  0.08157750  0.65605906  0.69952534    -0.20100
F1422       F  0.41030379  0.69855343  0.75241328    -0.20100
F1423       F  0.45670966  0.68913426  0.77378544    -0.20400
F1424       F  0.43419661  0.64567759  0.75572228    -0.23100
C1425       C  0.50065980  0.85702665  0.73328595    -0.05900
C1426       C  0.49431966  0.85365469  0.71281773     0.00000
C1427       C  0.98807438  0.81409003  0.70533682    -0.08600
C1428       C  0.98648441  0.78418040  0.71806515    -0.06000
C1429       C  0.49523745  0.79211589  0.73810802     0.00000
C1430       C  0.49913208  0.82785590  0.74649338    -0.08500
C1431       C  0.50032609  0.83777372  0.76886798     0.61900
H1432       H  0.50597597  0.88369349  0.73888018     0.12600
H1433       H  0.98230414  0.75868278  0.71096789     0.12600
C1434       C  0.98753562  0.80941176  0.68264302     0.62100
F1435       F  0.50210428  0.87419533  0.77206688    -0.23100
F1436       F  0.53007967  0.82437611  0.77795491    -0.20400
F1437       F  0.46966721  0.82640717  0.77844558    -0.20100
F1438       F  0.01795261  0.82491413  0.67446230    -0.20100
F1439       F  0.95762270  0.82553980  0.67479536    -0.20400
F1440       F  0.98668108  0.77394095  0.67694652    -0.23100
C1441       C  0.04214434  0.71919502  0.77342367    -0.05900
C1442       C  0.03350894  0.75075929  0.76310062     0.00000
C1443       C  0.06211574  0.77721293  0.76258145    -0.08600
C1444       C  0.08873546  0.77634816  0.77759136    -0.06000
C1445       C  0.09517367  0.74609896  0.78900401     0.00000
C1446       C  0.07249150  0.71589872  0.78594505    -0.08500
C1447       C  0.07883693  0.68059401  0.79621929     0.61900
H1448       H  0.02421101  0.69671942  0.77197726     0.12600
H1449       H  0.10747471  0.79856614  0.77885169     0.12600
C1450       C  0.07140116  0.80365507  0.74593386     0.62100
F1451       F  0.05306943  0.65521449  0.79113203    -0.23100
F1452       F  0.07794621  0.68521539  0.81687594    -0.20400
F1453       F  0.11164226  0.66736627  0.79045081    -0.20100
F1454       F  0.06239721  0.83765296  0.75185250    -0.20100
F1455       F  0.05641705  0.79549367  0.72761563    -0.20400
F1456       F  0.10802930  0.80368259  0.74250532    -0.23100
C1457       C  0.42674352  0.75234073  0.79560732    -0.05900
C1458       C  0.39548190  0.75835236  0.78479398     0.00000
C1459       C  0.39774987  0.76812289  0.76456715    -0.08600
C1460       C  0.43113163  0.76616562  0.75499697    -0.06000
C1461       C  0.46387742  0.75878468  0.76520475     0.00000
C1462       C  0.46126101  0.75570771  0.78701511    -0.08500
C1463       C  0.49106288  0.75436284  0.80275598     0.61900
H1464       H  0.42390922  0.74617204  0.81144967     0.12600
H1465       H  0.43123324  0.76897631  0.73886778     0.12600
C1466       C  0.36462516  0.77864230  0.75288248     0.62100
F1467       F  0.48033712  0.77122521  0.82032112    -0.23100
F1468       F  0.52197296  0.77160250  0.79739190    -0.20400
F1469       F  0.49805809  0.71940219  0.80735342    -0.20100
F1470       F  0.35006514  0.80864573  0.76159292    -0.20100
F1471       F  0.33952538  0.75126004  0.75320989    -0.20400
F1472       F  0.37234721  0.78626565  0.73299461    -0.23100
C1473       C  0.34769152  0.51705114  0.73575272    -0.05900
C1474       C  0.34395603  0.51469752  0.71498455     0.00000
C1475       C  0.30952865  0.51614380  0.70640925    -0.08600
C1476       C  0.27950581  0.51642914  0.71924842    -0.06000
C1477       C  0.28233302  0.51087613  0.74027889     0.00000
C1478       C  0.31783425  0.51651713  0.74879257    -0.08500
C1479       C  0.33110353  0.02081112  0.76970555     0.61900
H1480       H  0.37470172  0.51903086  0.74164185     0.12600
H1481       H  0.25354435  0.51915295  0.71243794     0.12600
C1482       C  0.30461191  0.51584229  0.68373325     0.62100
F1483       F  0.36743244  0.02029971  0.77393929    -0.23100
F1484       F  0.31540872  0.99486809  0.78114666    -0.20400
F1485       F  0.31413806  0.55661954  0.77659550    -0.20100
F1486       F  0.32558439  0.00833631  0.67124113    -0.20100
F1487       F  0.32200673  0.54494433  0.67549995    -0.20400
F1488       F  0.26886887  0.51700238  0.67827029    -0.23100
C1489       C  0.17119662  0.47769334  0.71190593    -0.05900
C1490       C  0.14360813  0.49970852  0.71805703     0.00000
C1491       C  0.15470539  0.02299318  0.73157359    -0.08600
C1492       C  0.18775083  0.02250522  0.74168907    -0.06000
C1493       C  0.21125093  0.49913528  0.73927572     0.00000
C1494       C  0.20347914  0.47416370  0.72283470    -0.08500
C1495       C  0.22587955  0.44212052  0.71636020     0.61900
H1496       H  0.16651128  0.46223002  0.69832535     0.12600
H1497       H  0.18892464  0.03840151  0.75514401     0.12600
C1498       C  0.12462174  0.04620661  0.73945960     0.62100
F1499       F  0.20759389  0.42005410  0.70293020    -0.23100
F1500       F  0.26621325  0.95891690  0.70468339    -0.20400
F1501       F  0.25659606  0.45259457  0.70663714    -0.20100
F1502       F  0.09413473  0.02560035  0.74246368    -0.20100
F1503       F  0.10582335  0.56622767  0.73254813    -0.20400
F1504       F  0.13325782  0.06261688  0.75758638    -0.23100
C1505       C  0.24389308  0.56809267  0.75714069    -0.05900
C1506       C  0.24438934  0.53505267  0.76765654     0.00000
C1507       C  0.24202008  0.53778368  0.78955346    -0.08600
C1508       C  0.24283489  0.57223044  0.79854400    -0.06000
C1509       C  0.24365875  0.60364043  0.78753983     0.00000
C1510       C  0.24328501  0.60168330  0.76644236    -0.08500
C1511       C  0.24221105  0.63387625  0.75278493     0.61900
H1512       H  0.24354629  0.56773683  0.74084426     0.12600
H1513       H  0.24179176  0.57548974  0.81472657     0.12600
C1514       C  0.23493356  0.50761656  0.80449554     0.62100
F1515       F  0.24018896  0.66584734  0.76307530    -0.23100
F1516       F  0.21260395  0.63096825  0.74030618    -0.20400
F1517       F  0.27274875  0.63470057  0.74103696    -0.20100
F1518       F  0.25824446  0.47995401  0.80235059    -0.20100
F1519       F  0.19992874  0.49586876  0.80256748    -0.20400
F1520       F  0.23882025  0.51873552  0.82431900    -0.23100
C1521       C  0.21981844  0.95162726  0.76827008    -0.05900
C1522       C  0.25308489  0.96337271  0.76011992     0.00000
C1523       C  0.28161943  0.93742929  0.76117537    -0.08600
C1524       C  0.27804041  0.90920175  0.77492713    -0.06000
C1525       C  0.24567369  0.90003972  0.78423406     0.00000
C1526       C  0.21533372  0.92088690  0.78004509    -0.08500
C1527       C  0.17859135  0.91271738  0.78886629     0.61900
H1528       H  0.19675502  0.96807239  0.76628505     0.12600
H1529       H  0.30077089  0.89210950  0.77732622     0.12600
C1530       C  0.31451098  0.93276730  0.74765006     0.62100
F1531       F  0.15302621  0.93663559  0.78273235    -0.23100
F1532       F  0.18041203  0.91444576  0.80964286    -0.20400
F1533       F  0.16701538  0.87927321  0.78273537    -0.20100
F1534       F  0.34520213  0.94310205  0.75791497    -0.20100
F1535       F  0.31292331  0.94982169  0.72963835    -0.20400
F1536       F  0.31795567  0.89717771  0.74250328    -0.23100
C1537       C  0.09671922  0.78027739  0.06163253    -0.05900
C1538       C  0.09060267  0.74733785  0.05225420     0.00000
C1539       C  0.10435191  0.71616219  0.06075614    -0.08600
C1540       C  0.12421775  0.71918891  0.07861815    -0.06000
C1541       C  0.12982126  0.75200899  0.08852378     0.00000
C1542       C  0.11507897  0.78327763  0.08004550    -0.08500
C1543       C  0.11609053  0.81925153  0.09067281     0.61900
H1544       H  0.08479889  0.80342909  0.05491956     0.12600
H1545       H  0.13426424  0.69543505  0.08541796     0.12600
C1546       C  0.09703488  0.67986626  0.05129771     0.62100
F1547       F  0.09656330  0.84443607  0.08047837    -0.23100
F1548       F  0.15095361  0.83181275  0.09209459    -0.20400
F1549       F  0.10138285  0.81611446  0.10968418    -0.20100
F1550       F  0.10926125  0.67951363  0.03167522    -0.20100
F1551       F  0.06070412  0.67239729  0.05137864    -0.20400
F1552       F  0.11383182  0.65300291  0.06161658    -0.23100
C1553       C  0.39735848  0.76774898  0.05846698    -0.05900
C1554       C  0.40788917  0.73402975  0.05208989     0.00000
C1555       C  0.39856677  0.70377708  0.06337673    -0.08600
C1556       C  0.38078432  0.70873749  0.08175529    -0.06000
C1557       C  0.37302468  0.74297621  0.08927044     0.00000
C1558       C  0.38058716  0.77309336  0.07706475    -0.08500
C1559       C  0.37237729  0.81087097  0.08350648     0.61900
H1560       H  0.40515562  0.79027198  0.04932687     0.12600
H1561       H  0.37427657  0.68572247  0.09077027     0.12600
C1562       C  0.40869124  0.66679132  0.05632207     0.62100
F1563       F  0.38112785  0.83538049  0.06881745    -0.23100
F1564       F  0.39196052  0.81975582  0.10055557    -0.20400
F1565       F  0.33613471  0.81369047  0.08723221    -0.20100
F1566       F  0.44555269  0.66399846  0.05571142    -0.20100
F1567       F  0.39495046  0.66045641  0.03728201    -0.20400
F1568       F  0.39536578  0.64070409  0.06895918    -0.23100
C1569       C  0.09227298  0.73745770  0.94179131    -0.05900
C1570       C  0.08100364  0.77174781  0.94684913     0.00000
C1571       C  0.09070457  0.80067786  0.93447509    -0.08600
C1572       C  0.11241208  0.79433389  0.91765898    -0.06000
C1573       C  0.12352515  0.75995849  0.91220363     0.00000
C1574       C  0.11271801  0.73071967  0.92438091    -0.08500
C1575       C  0.12163241  0.69253596  0.91907298     0.61900
H1576       H  0.08411160  0.71582456  0.95148758     0.12600
H1577       H  0.11995759  0.81652294  0.90825288     0.12600
C1578       C  0.07739787  0.83802271  0.93861253     0.62100
F1579       F  0.10832480  0.66881633  0.93311128    -0.23100
F1580       F  0.15835217  0.68857095  0.91830164    -0.20400
F1581       F  0.10653762  0.68357519  0.90066524    -0.20100
F1582       F  0.08365545  0.84755429  0.95846586    -0.20100
F1583       F  0.04107049  0.83915971  0.93468456    -0.20400
F1584       F  0.09426813  0.86301931  0.92659116    -0.23100
C1585       C  0.39015863  0.77885141  0.94290342    -0.05900
C1586       C  0.41051016  0.74872416  0.94677217     0.00000
C1587       C  0.40950062  0.71972427  0.93322524    -0.08600
C1588       C  0.39103337  0.72349838  0.91493688    -0.06000
C1589       C  0.37193564  0.75448981  0.91039933     0.00000
C1590       C  0.36985585  0.78191147  0.92519426    -0.08500
C1591       C  0.34634296  0.81412693  0.92278067     0.61900
H1592       H  0.39085606  0.80035546  0.95384960     0.12600
H1593       H  0.39141009  0.70200751  0.90401419     0.12600
C1594       C  0.42716516  0.68486305  0.93835630     0.62100
F1595       F  0.34292693  0.83276229  0.94072390    -0.23100
F1596       F  0.31228885  0.80367780  0.91677965    -0.20400
F1597       F  0.36123713  0.83670729  0.90868447    -0.20100
F1598       F  0.46316151  0.69039308  0.94234604    -0.20100
F1599       F  0.42413690  0.66029554  0.92280195    -0.20400
F1600       F  0.41082929  0.67057844  0.95518208    -0.23100
C1601       C  0.31983936  0.49535588  0.29511544    -0.05900
C1602       C  0.35114762  0.99251272  0.28588285     0.00000
C1603       C  0.34819691  0.98525277  0.26530683    -0.08600
C1604       C  0.31471428  0.98894359  0.25615429    -0.06000
C1605       C  0.28216391  0.99481177  0.26694079     0.00000
C1606       C  0.28494560  0.49621184  0.28676692    -0.08500
C1607       C  0.25552160  0.49981019  0.30268609     0.61900
H1608       H  0.32372499  0.49829945  0.31121418     0.12600
H1609       H  0.31411037  0.98780014  0.23991667     0.12600
C1610       C  0.38050624  0.97434882  0.25298710     0.62100
F1611       F  0.26591148  0.48472796  0.32069564    -0.23100
F1612       F  0.22597375  0.98126439  0.30112394    -0.20400
F1613       F  0.24918683  0.53525918  0.30653916    -0.20100
F1614       F  0.39532724  0.94428747  0.26124038    -0.20100
F1615       F  0.40512299  0.50904046  0.25245575    -0.20400
F1616       F  0.37146134  0.96647136  0.23321118    -0.23100
C1617       C  0.20384846  0.53422454  0.27236249    -0.05900
C1618       C  0.20994388  0.99725949  0.26266571     0.00000
C1619       C  0.18083637  0.97140554  0.26105212    -0.08600
C1620       C  0.15405952  0.97181457  0.27591097    -0.06000
C1621       C  0.14755337  0.00202454  0.28756886     0.00000
C1622       C  0.17379917  0.53877186  0.28496873    -0.08500
C1623       C  0.17177043  0.57166884  0.29833287     0.61900
H1624       H  0.22424264  0.55456910  0.27249855     0.12600
H1625       H  0.13513197  0.94970356  0.27667910     0.12600
C1626       C  0.17126361  0.94678574  0.24331670     0.62100
F1627       F  0.20116963  0.59410631  0.29593274    -0.23100
F1628       F  0.16113988  0.06680202  0.31445775    -0.20400
F1629       F  0.14155675  0.59068335  0.29357361    -0.20100
F1630       F  0.17990807  0.91213354  0.24768626    -0.20100
F1631       F  0.18739447  0.46056420  0.22251896    -0.20400
F1632       F  0.13462946  0.94739887  0.23989145    -0.23100
C1633       C  0.22527459  0.53882135  0.22220667    -0.05900
C1634       C  0.25134463  0.53524505  0.23763749     0.00000
C1635       C  0.27457168  0.56646930  0.24088189    -0.08600
C1636       C  0.27358275  0.59438709  0.22678502    -0.06000
C1637       C  0.24776769  0.59660243  0.21175152     0.00000
C1638       C  0.22308619  0.56819346  0.20928108    -0.08500
C1639       C  0.19533517  0.56782964  0.19253204     0.61900
H1640       H  0.20580437  0.51795143  0.22028461     0.12600
H1641       H  0.29257030  0.61636715  0.22798821     0.12600
C1642       C  0.29906564  0.57519906  0.25894131     0.62100
F1643       F  0.17706665  0.53560953  0.19118466    -0.23100
F1644       F  0.21198738  0.57367877  0.17424373    -0.20400
F1645       F  0.17042726  0.59396277  0.19604219    -0.20100
F1646       F  0.33251150  0.56103353  0.25609304    -0.20100
F1647       F  0.28482438  0.56449121  0.27688159    -0.20400
F1648       F  0.30422369  0.61156674  0.26136187    -0.23100
C1649       C  0.25427876  0.89595462  0.23353365    -0.05900
C1650       C  0.25584169  0.90033214  0.21288447     0.00000
C1651       C  0.25852190  0.93469442  0.20488288    -0.08600
C1652       C  0.25796163  0.96411542  0.21810811    -0.06000
C1653       C  0.25215623  0.96092202  0.23923058     0.00000
C1654       C  0.25344047  0.92493676  0.24713591    -0.08500
C1655       C  0.25532444  0.91481086  0.26938233     0.61900
H1656       H  0.25408309  0.86884170  0.23886528     0.12600
H1657       H  0.26232444  0.98979172  0.21154214     0.12600
C1658       C  0.26169901  0.94009837  0.18233709     0.62100
F1659       F  0.25208641  0.87847064  0.27226156    -0.23100
F1660       F  0.22800020  0.92947708  0.28009482    -0.20400
F1661       F  0.28790826  0.92492103  0.27751044    -0.20100
F1662       F  0.23240871  0.92471927  0.17272089    -0.20100
F1663       F  0.29258111  0.92440453  0.17534257    -0.20400
F1664       F  0.26303017  0.97573818  0.17733436    -0.23100
C1665       C  0.74646179  0.49977016  0.25240732    -0.02700
N1666       N  0.55425840  0.25826039  0.00147371    -0.36800
N1667       N  0.99846035  0.24569514  0.03042954    -0.57300
N1668       N  0.94525361  0.25050465  0.99830057    -0.36800
N1669       N  0.00400455  0.26611453  0.95534121    -0.57300
C1670       C  0.57523136  0.25068763  0.01729007     0.26800
C1671       C  0.57461732  0.25857708  0.98469907     0.26800
C1672       C  0.92288861  0.24305573  0.01364424     0.26800
C1673       C  0.92610637  0.24998236  0.98104982     0.26800
C1674       C  0.52701518  0.25047436  0.04342249     0.35400
C1675       C  0.96833010  0.24488012  0.04171403     0.35400
C1676       C  0.52624260  0.27844865  0.96311802     0.35400
C1677       C  0.97242441  0.27945221  0.96149957     0.35400
C1678       C  0.61011364  0.24633760  0.01051563    -0.22100
C1679       C  0.60959664  0.25078076  0.98978765    -0.22100
C1680       C  0.88867971  0.23704932  0.00592056    -0.22100
C1681       C  0.89086109  0.24085527  0.98519962    -0.22100
C1682       C  0.51527355  0.25638917  0.06293603    -0.23100
C1683       C  0.97738965  0.24631661  0.06197671    -0.23100
C1684       C  0.51311223  0.30675406  0.97419073    -0.23100
C1685       C  0.97785214  0.30937465  0.97346734    -0.23100
C1686       C  0.56353291  0.24943798  0.03757998    -0.18500
C1687       C  0.56108357  0.26563983  0.96523756    -0.18500
C1688       C  0.94091414  0.25885343  0.96212549    -0.18500
C1689       C  0.93257249  0.24255712  0.03431848    -0.18500
H1690       H  0.63341230  0.24050228  0.01953878     0.14400
H1691       H  0.63231915  0.24917538  0.97975000     0.14400
H1692       H  0.86469264  0.23057409  0.01432912     0.14400
H1693       H  0.86895825  0.23837441  0.97457892     0.14400
H1694       H  0.53136308  0.26263827  0.07608694     0.12700
H1695       H  0.95961470  0.24609345  0.07481581     0.12700
H1696       H  0.52851037  0.32550823  0.98326199     0.12700
H1697       H  0.95773518  0.32370957  0.98182779     0.12700
H1698       H  0.52706922  0.26405339  0.00208707     0.26000
H1699       H  0.97223144  0.25637535  0.99918562     0.26000
C1700       C  0.74972191  0.99564456  0.75019549    -0.02700
C1701       C  0.50050091  0.25562755  0.75075638    -0.02700
N1702       N  0.76363661  0.44249609  0.99971891    -0.36800
N1703       N  0.74654657  0.99778637  0.03058643    -0.57300
N1704       N  0.74520219  0.05238642  0.99987294    -0.36800
N1705       N  0.75074366  0.99691003  0.96980279    -0.57300
C1706       C  0.77524882  0.42393095  0.01575688     0.26800
C1707       C  0.77409987  0.42508202  0.98296340     0.26800
C1708       C  0.75441636  0.07229024  0.01617266     0.26800
C1709       C  0.75211768  0.07205779  0.98337395     0.26800
C1710       C  0.75560023  0.46659300  0.04167523     0.35400
C1711       C  0.73995014  0.02692690  0.04187795     0.35400
C1712       C  0.75445772  0.46956818  0.95801949     0.35400
C1713       C  0.74343665  0.02448779  0.95763265     0.35400
C1714       C  0.79358778  0.39432554  0.00911116    -0.22100
C1715       C  0.79244179  0.39478923  0.98831750    -0.22100
C1716       C  0.76670762  0.10537755  0.00997209    -0.22100
C1717       C  0.76494793  0.10534404  0.98922388    -0.22100
C1718       C  0.74230183  0.47572755  0.06046485    -0.23100
C1719       C  0.72713372  0.01714816  0.06062627    -0.23100
C1720       C  0.74195193  0.47937029  0.93922681    -0.23100
C1721       C  0.73705643  0.01238055  0.93816617    -0.23100
C1722       C  0.76728216  0.43242266  0.03601234    -0.18500
C1723       C  0.76514929  0.43497453  0.96315198    -0.18500
C1724       C  0.74617787  0.06070626  0.96329857    -0.18500
C1725       C  0.74986482  0.06183622  0.03641883    -0.18500
H1726       H  0.80575169  0.37414138  0.01827924     0.14400
H1727       H  0.80367162  0.37508055  0.97829072     0.14400
H1728       H  0.77562112  0.12736249  0.01941162     0.14400
H1729       H  0.77252278  0.12721910  0.97957850     0.14400
H1730       H  0.73634829  0.45821849  0.07289614     0.12700
H1731       H  0.72054240  0.03445967  0.07312993     0.12700
H1732       H  0.73610526  0.46223527  0.92644286     0.12700
H1733       H  0.73162339  0.02795003  0.92492415     0.12700
H1734       H  0.74581614  0.46350697  0.00006459     0.26000
H1735       H  0.73165160  0.02805690  0.99998252     0.26000
N1736       N  0.73237071  0.32314715  0.86567290    -0.06300
N1737       N  0.72214753  0.33736731  0.88295719    -0.58400
N1738       N  0.76220914  0.32685061  0.81789587    -0.06000
N1739       N  0.77204228  0.35128415  0.80474755    -0.60500
N1740       N  0.72708188  0.32549818  0.81919546    -0.05600
N1741       N  0.71254423  0.34875999  0.80691476    -0.58400
N1742       N  0.76741712  0.32480984  0.86411692    -0.05200
N1743       N  0.78165323  0.34016641  0.88016458    -0.60900
C1744       C  0.75324992  0.34776611  0.89191122     0.95900
C1745       C  0.74080537  0.36480975  0.79784428     0.95700
N1746       N  0.82570110  0.23291028  0.81687367    -0.06500
N1747       N  0.84898169  0.22122913  0.80353183    -0.59000
N1748       N  0.82783231  0.26970865  0.86245285    -0.04600
N1749       N  0.84626016  0.28367031  0.87758472    -0.60200
N1750       N  0.82858320  0.23486755  0.86316963    -0.06500
N1751       N  0.84764645  0.22456882  0.87880986    -0.59200
N1752       N  0.82416422  0.26785600  0.81626142    -0.04200
N1753       N  0.84641888  0.28038822  0.80254198    -0.60300
Mn1754     Mn  0.79607834  0.29806463  0.83982736     1.18400
C1755       C  0.86122993  0.25101457  0.79439394     0.98000
C1756       C  0.85852324  0.25539532  0.88780402     0.98600
N1757       N  0.67017389  0.26234719  0.82025684    -0.06500
N1758       N  0.64715817  0.27362397  0.80674468    -0.62800
N1759       N  0.67390036  0.22837034  0.86665314    -0.05300
N1760       N  0.65590873  0.21656435  0.88248857    -0.63500
N1761       N  0.67372834  0.26323572  0.86637769    -0.06000
N1762       N  0.65572574  0.27573949  0.88183823    -0.63100
N1763       N  0.67102332  0.22736546  0.82014944    -0.04900
N1764       N  0.64847904  0.21433004  0.80656588    -0.63800
Mn1765     Mn  0.70008256  0.29422896  0.84278973     1.10700
C1766       C  0.63363866  0.24342284  0.79830369     0.99200
C1767       C  0.64458993  0.24652432  0.89192008     0.99300
N1768       N  0.77026917  0.17404813  0.86533524    -0.06000
N1769       N  0.78351267  0.15830696  0.88136025    -0.61400
N1770       N  0.73244571  0.16837992  0.81955874    -0.05400
N1771       N  0.72013988  0.14363770  0.80697401    -0.58100
N1772       N  0.76769236  0.16984155  0.81889076    -0.06700
N1773       N  0.77986336  0.14629638  0.80577450    -0.61000
N1774       N  0.73509721  0.17270612  0.86576862    -0.05600
N1775       N  0.72384194  0.15614393  0.88200488    -0.58200
Mn1776     Mn  0.79888470  0.20213809  0.84095019     1.20200
Mn1777     Mn  0.70231111  0.19833211  0.84286155     1.10100
Cl1778     Cl  0.74933818  0.24814371  0.84131360    -0.86100
C1779       C  0.75423759  0.14708191  0.89168148     0.96200
C1780       C  0.74991300  0.13058512  0.79812098     0.96000
N1781       N  0.74213505  0.33017602  0.18075990    -0.06300
N1782       N  0.72988217  0.35712878  0.19145651    -0.58400
N1783       N  0.78072765  0.32631672  0.13622106    -0.06000
N1784       N  0.79577132  0.34418047  0.12142437    -0.60500
N1785       N  0.74565269  0.32670966  0.13470100    -0.05600
N1786       N  0.73620005  0.34479158  0.11858324    -0.58400
N1787       N  0.77739126  0.32937569  0.18176946    -0.05200
N1788       N  0.78968906  0.35598418  0.19308035    -0.60900
C1789       C  0.75974674  0.37291485  0.19902652     0.95900
C1790       C  0.76786862  0.35588121  0.11055643     0.95700
N1791       N  0.83390152  0.23095780  0.13639555    -0.06500
N1792       N  0.84721514  0.21876389  0.11933296    -0.59000
N1793       N  0.83448126  0.26558060  0.18337716    -0.04600
N1794       N  0.85717463  0.27703855  0.19732320    -0.60200
N1795       N  0.83343529  0.23056486  0.18294533    -0.06500
N1796       N  0.85543317  0.21782154  0.19656631    -0.59200
N1797       N  0.83551841  0.26584744  0.13678183    -0.04200
N1798       N  0.84990642  0.27789478  0.11997852    -0.60300
Mn1799     Mn  0.80790975  0.29716364  0.15993088     1.18400
C1800       C  0.85709203  0.24831872  0.10911575     0.98000
C1801       C  0.86989774  0.24698447  0.20567305     0.98600
N1802       N  0.68331373  0.26898431  0.13432079    -0.06500
N1803       N  0.66551514  0.28165421  0.11889071    -0.62800
N1804       N  0.67935028  0.23449471  0.18050575    -0.05300
N1805       N  0.65546858  0.22276779  0.19356730    -0.63500
N1806       N  0.68013924  0.26958330  0.18036402    -0.06000
N1807       N  0.65661244  0.28221322  0.19334371    -0.63100
N1808       N  0.68162550  0.23410553  0.13426289    -0.04900
N1809       N  0.66274892  0.22250778  0.11862120    -0.63800
Mn1810     Mn  0.71206601  0.29939995  0.15764558     1.10700
C1811       C  0.65287296  0.25254394  0.10902778     0.99200
C1812       C  0.64178523  0.25271083  0.20161676     0.99300
N1813       N  0.77173760  0.16989918  0.18135028    -0.06000
N1814       N  0.78246171  0.14383521  0.19309867    -0.61400
N1815       N  0.73844044  0.17420063  0.13482344    -0.05400
N1816       N  0.72581981  0.15840522  0.11848866    -0.58100
N1817       N  0.77357046  0.17329969  0.13510945    -0.06700
N1818       N  0.78555779  0.15687370  0.11886279    -0.61000
N1819       N  0.73647396  0.17064767  0.18078695    -0.05600
N1820       N  0.72278056  0.14494773  0.19204274    -0.58200
Mn1821     Mn  0.80410752  0.20055209  0.15919566     1.20200
Mn1822     Mn  0.70824455  0.20281088  0.15783637     1.10100
Cl1823     Cl  0.75798689  0.25000186  0.15924739    -0.86100
C1824       C  0.75166593  0.12832481  0.19970947     0.96200
C1825       C  0.75538126  0.14796273  0.10851721     0.96000
N1826       N  0.57811274  0.02127397  0.67947872    -0.06300
N1827       N  0.60282128  0.03340944  0.69214997    -0.58400
N1828       N  0.56742469  0.48509793  0.63373090    -0.06000
N1829       N  0.58585766  0.47308551  0.61810605    -0.60500
N1830       N  0.57462313  0.01776868  0.63336370    -0.05600
N1831       N  0.59312987  0.02810388  0.61751847    -0.58400
N1832       N  0.56973543  0.48821912  0.68029258    -0.05200
N1833       N  0.59304945  0.47664263  0.69360109    -0.60900
C1834       C  0.61585130  0.00373823  0.70073918     0.95900
C1835       C  0.60301144  0.99738167  0.60856564     0.95700
N1836       N  0.97881368  0.42302091  0.63584667    -0.06500
N1837       N  0.96698732  0.41048250  0.61835899    -0.59000
N1838       N  0.50769252  0.42724136  0.68155317    -0.04600
N1839       N  0.51975865  0.40190798  0.69336161    -0.60200
N1840       N  0.97714095  0.42163473  0.68250451    -0.06500
N1841       N  0.96358087  0.39724638  0.69462467    -0.59200
N1842       N  0.50537886  0.42701813  0.63544607    -0.04200
N1843       N  0.51548285  0.40852439  0.61951486    -0.60300
Mn1844     Mn  0.53842835  0.45614059  0.65786527     1.18400
C1845       C  0.99710468  0.40187540  0.60817640     0.98000
C1846       C  0.99272281  0.38175145  0.70259016     0.98600
N1847       N  0.51793910  0.07769699  0.63261284    -0.06500
N1848       N  0.52932320  0.09247422  0.61581716    -0.62800
N1849       N  0.98573973  0.08017505  0.68124079    -0.05300
N1850       N  0.97467650  0.10730170  0.69212002    -0.63500
N1851       N  0.52058274  0.08423300  0.67870060    -0.06000
N1852       N  0.53392630  0.11001787  0.69023796    -0.63100
N1853       N  0.98434320  0.07592757  0.63573551    -0.04900
N1854       N  0.97196828  0.09455484  0.62063572    -0.63800
Mn1855     Mn  0.54875524  0.05103366  0.65621786     1.10700
C1856       C  0.00174968  0.10519447  0.61071675     0.99200
C1857       C  0.00518420  0.12369588  0.69846721     0.99300
N1858       N  0.91868414  0.48487351  0.68187270    -0.06000
N1859       N  0.89277981  0.47482002  0.69427812    -0.61400
N1860       N  0.92378244  0.01933806  0.63624724    -0.05400
N1861       N  0.91014935  0.03158910  0.61939702    -0.58100
N1862       N  0.92106495  0.48090772  0.63598389    -0.06700
N1863       N  0.90283903  0.46763531  0.62062517    -0.61000
N1864       N  0.92242217  0.02143094  0.68239187    -0.05600
N1865       N  0.89885554  0.03542767  0.69480669    -0.58200
Mn1866     Mn  0.94825729  0.45175608  0.65939401     1.20200
Mn1867     Mn  0.95339701  0.04960122  0.65920965     1.10100
Cl1868     Cl  0.99888838  0.00003800  0.65982368    -0.86100
C1869       C  0.88225739  0.00689589  0.70295529     0.96200
C1870       C  0.90001388  0.00195972  0.60912955     0.96000
N1871       N  0.98532643  0.42163979  0.31654545    -0.06300
N1872       N  0.97459071  0.39742943  0.30324255    -0.58400
N1873       N  0.51216677  0.42221364  0.36580970    -0.06000
N1874       N  0.52236797  0.40772726  0.38287154    -0.60500
N1875       N  0.98373482  0.41932002  0.36289294    -0.05600
N1876       N  0.97179512  0.40066365  0.37831461    -0.58400
N1877       N  0.51809927  0.42078110  0.31958957    -0.05200
N1878       N  0.53245143  0.39726974  0.30732049    -0.60900
C1879       C  0.00526406  0.38461061  0.29524196     0.95900
C1880       C  0.00189147  0.39089330  0.38815066     0.95700
N1881       N  0.57356721  0.01446181  0.36911972    -0.06500
N1882       N  0.59095497  0.02610455  0.38528441    -0.59000
N1883       N  0.57707262  0.48338395  0.32206949    -0.04600
N1884       N  0.60127167  0.47291864  0.30886519    -0.60200
N1885       N  0.57795465  0.01367700  0.32269203    -0.06500
N1886       N  0.60136062  0.02654924  0.30977696    -0.59200
N1887       N  0.56960741  0.48213520  0.36809496    -0.04200
N1888       N  0.58474314  0.46950172  0.38437097    -0.60300
Mn1889     Mn  0.54515881  0.45133483  0.34366060     1.18400
C1890       C  0.59352974  0.49872290  0.39533937     0.98000
C1891       C  0.61502346  0.50371878  0.30140104     0.98600
N1892       N  0.92270577  0.47524009  0.36401180    -0.06500
N1893       N  0.90735050  0.46157062  0.38017799    -0.62800
N1894       N  0.92436275  0.01526670  0.31759219    -0.05300
N1895       N  0.90246258  0.02721409  0.30367828    -0.63500
N1896       N  0.92191880  0.47871401  0.31776281    -0.06000
N1897       N  0.89736044  0.46652525  0.30501894    -0.63100
N1898       N  0.91962413  0.01520665  0.36346971    -0.04900
N1899       N  0.90033106  0.02729924  0.37856451    -0.63800
Mn1900     Mn  0.95266493  0.44793518  0.34007207     1.10700
C1901       C  0.89622455  0.49033170  0.39076267     0.99200
C1902       C  0.88218368  0.49623537  0.29773734     0.99300
N1903       N  0.52026880  0.07428048  0.32062714    -0.06000
N1904       N  0.53465549  0.09752038  0.30809671    -0.61400
N1905       N  0.98032120  0.07342893  0.36679880    -0.05400
N1906       N  0.96736676  0.08967479  0.38283277    -0.58100
N1907       N  0.51598333  0.07419180  0.36679093    -0.06700
N1908       N  0.52727896  0.09130568  0.38305703    -0.61000
N1909       N  0.98473761  0.07610320  0.32068553    -0.05600
N1910       N  0.97422889  0.10043049  0.30785445    -0.58200
Mn1911     Mn  0.54767308  0.04479880  0.34477303     1.20200
Mn1912     Mn  0.95141311  0.04584406  0.34197587     1.10100
Cl1913     Cl  0.99902757  0.49840540  0.34188902    -0.86100
C1914       C  0.00526343  0.11494427  0.30116441     0.96200
C1915       C  0.99679446  0.09906884  0.39372661     0.96000
N1916       N  0.48607813  0.30836117  0.50110493    -0.36800
N1917       N  0.48740040  0.25314848  0.53090911    -0.57300
N1918       N  0.49633273  0.19947738  0.49992730    -0.36800
N1919       N  0.49281258  0.25453133  0.47007194    -0.57300
C1920       C  0.47577674  0.32664199  0.51760960     0.26800
C1921       C  0.47615732  0.32718230  0.48487101     0.26800
C1922       C  0.48725332  0.17879864  0.51567221     0.26800
C1923       C  0.49239343  0.17950914  0.48310080     0.26800
C1924       C  0.49223414  0.28182913  0.54292902     0.35400
C1925       C  0.49499477  0.22472941  0.54225982     0.35400
C1926       C  0.49611143  0.28411430  0.45886153     0.35400
C1927       C  0.50355142  0.22732493  0.45829463     0.35400
C1928       C  0.45937066  0.35778422  0.51189146    -0.22100
C1929       C  0.45961460  0.35813513  0.49111728    -0.22100
C1930       C  0.47816477  0.14493870  0.50886555    -0.22100
C1931       C  0.48151704  0.14534334  0.48822285    -0.22100
C1932       C  0.50293081  0.27157859  0.56199812    -0.23100
C1933       C  0.50461271  0.23531365  0.56158121    -0.23100
C1934       C  0.50906269  0.27567885  0.43989609    -0.23100
C1935       C  0.51359464  0.23966991  0.43950381    -0.23100
C1936       C  0.48339550  0.31673459  0.53754127    -0.18500
C1937       C  0.48403665  0.31797448  0.46474575    -0.18500
C1938       C  0.50018426  0.19116994  0.46344539    -0.18500
C1939       C  0.48961068  0.18927502  0.53602448    -0.18500
H1940       H  0.44885087  0.37827242  0.52166356     0.14400
H1941       H  0.44926434  0.37895975  0.48169917     0.14400
H1942       H  0.47038057  0.12225260  0.51785265     0.14400
H1943       H  0.47672016  0.12298251  0.47818487     0.14400
H1944       H  0.50807015  0.28837698  0.57501331     0.12700
H1945       H  0.51124143  0.21861476  0.57419483     0.12700
H1946       H  0.51367340  0.29343193  0.42740550     0.12700
H1947       H  0.52224732  0.22430977  0.42661844     0.12700
H1948       H  0.50290199  0.28659767  0.50103251     0.26000
H1949       H  0.50840597  0.22450557  0.50075407     0.26000
N1950       N  0.69982466  0.97625075  0.50189539    -0.36800
N1951       N  0.75628664  0.98628463  0.53121544    -0.57300
N1952       N  0.81072529  0.98667367  0.50012932    -0.36800
N1953       N  0.75415116  0.97858463  0.47084150    -0.57300
C1954       C  0.68041441  0.98358331  0.51850418     0.26800
C1955       C  0.67921368  0.98357402  0.48577205     0.26800
C1956       C  0.82959621  0.00085776  0.51562876     0.26800
C1957       C  0.82891738  0.99416980  0.48313898     0.26800
C1958       C  0.72901508  0.97733228  0.54356825     0.35400
C1959       C  0.78626870  0.98565236  0.54254660     0.35400
C1960       C  0.72486166  0.97257890  0.45932656     0.35400
C1961       C  0.78269147  0.97315143  0.45882405     0.35400
C1962       C  0.64655942  0.99454309  0.51294384    -0.22100
C1963       C  0.64582372  0.99461497  0.49221050    -0.22100
C1964       C  0.86065918  0.01692744  0.50849191    -0.22100
C1965       C  0.86018753  0.01276914  0.48786215    -0.22100
C1966       C  0.74170927  0.97092128  0.56278379    -0.23100
C1967       C  0.77801836  0.97612335  0.56213580    -0.23100
C1968       C  0.73023713  0.49867829  0.43869543    -0.23100
C1969       C  0.76680520  0.49741926  0.43830380    -0.23100
C1970       C  0.69251722  0.97978858  0.53846802    -0.18500
C1971       C  0.68938040  0.97896728  0.46547874    -0.18500
C1972       C  0.81812011  0.98371215  0.46364525    -0.18500
C1973       C  0.82032756  0.99740771  0.53604452    -0.18500
H1974       H  0.62476693  0.00188735  0.52278459     0.14400
H1975       H  0.62325658  0.00184307  0.48294770     0.14400
H1976       H  0.88149263  0.03009531  0.51724133     0.14400
H1977       H  0.88052720  0.02223098  0.47754309     0.14400
H1978       H  0.72625776  0.96435254  0.57604408     0.12700
H1979       H  0.79610328  0.97421452  0.57480644     0.12700
H1980       H  0.71312524  0.50360748  0.42589194     0.12700
H1981       H  0.78341657  0.50103585  0.42512631     0.12700
H1982       H  0.72453631  0.96389176  0.50168028     0.26000
H1983       H  0.78864332  0.96964230  0.50122684     0.26000
C1984       C  0.51058253  0.24537211  0.25167883    -0.02700
C1985       C  0.53583559  0.30684662  0.26397248    -0.05900
C1986       C  0.00711813  0.28020598  0.26493597     0.00000
C1987       C  0.97734828  0.29150103  0.27733271    -0.08600
C1988       C  0.97802715  0.32590635  0.28607988    -0.06000
C1989       C  0.00682459  0.34983690  0.28411924     0.00000
C1990       C  0.53479128  0.34024960  0.27349881    -0.08500
C1991       C  0.56311113  0.36837852  0.26847028     0.61900
H1992       H  0.55815566  0.30320105  0.25413650     0.12600
H1993       H  0.95535208  0.33412086  0.29506787     0.12600
C1994       C  0.94300327  0.27071970  0.28223094     0.62100
F1995       F  0.58319536  0.35904499  0.25179751    -0.23100
F1996       F  0.58627530  0.37297824  0.28454858    -0.20400
F1997       F  0.54692795  0.40032391  0.26422956    -0.20100
F1998       F  0.94351859  0.23518092  0.27790318    -0.20100
F1999       F  0.91474121  0.28549913  0.27193763    -0.20400
F2000       F  0.93619073  0.27330917  0.30266908    -0.23100
C2001       C  0.51426284  0.14355052  0.26671991    -0.05900
C2002       C  0.00715583  0.14765309  0.28927242     0.00000
C2003       C  0.00710768  0.18161853  0.29818991    -0.08600
C2004       C  0.00831825  0.21152413  0.28570300    -0.06000
C2005       C  0.00903628  0.20920110  0.26433544     0.00000
C2006       C  0.51730356  0.17411998  0.25454855    -0.08500
C2007       C  0.52699082  0.16710750  0.23240008     0.61900
H2008       H  0.51699670  0.11721701  0.26027066     0.12600
H2009       H  0.00873750  0.23709249  0.29302404     0.12600
C2010       C  0.00636587  0.18616899  0.32092763     0.62100
F2011       F  0.52432458  0.13136792  0.22737334    -0.23100
F2012       F  0.56207866  0.17712379  0.22885826    -0.20400
F2013       F  0.50480603  0.18443858  0.21930251    -0.20100
F2014       F  0.03708260  0.17211643  0.32911139    -0.20100
F2015       F  0.97677802  0.16868275  0.32877445    -0.20400
F2016       F  0.00466011  0.22154642  0.32670336    -0.23100
C2017       C  0.52971954  0.13327284  0.41969211    -0.05900
C2018       C  0.99695247  0.11723664  0.41372742     0.00000
C2019       C  0.96618887  0.12005276  0.42620791    -0.08600
C2020       C  0.96892300  0.13947066  0.44424921    -0.06000
C2021       C  0.50060238  0.16489174  0.44679739     0.00000
C2022       C  0.53246871  0.15348592  0.43747247    -0.08500
C2023       C  0.56986675  0.16271011  0.44512626     0.61900
H2024       H  0.55423399  0.12537983  0.41232216     0.12600
H2025       H  0.94537863  0.14398644  0.45337426     0.12600
C2026       C  0.93010064  0.10442163  0.42036035     0.62100
F2027       F  0.58854126  0.13171821  0.44809230    -0.23100
F2028       F  0.57004103  0.18151288  0.46307792    -0.20400
F2029       F  0.58763140  0.18288299  0.43086784    -0.20100
F2030       F  0.93331239  0.06860468  0.41596758    -0.20100
F2031       F  0.91737687  0.12246788  0.40384597    -0.20400
F2032       F  0.90514852  0.10754008  0.43564556    -0.23100
C2033       C  0.51057711  0.36732480  0.44550887    -0.05900
C2034       C  0.48099221  0.34492636  0.44873311     0.00000
C2035       C  0.96653155  0.35640420  0.43800230    -0.08600
C2036       C  0.96985739  0.37336010  0.41930944    -0.06000
C2037       C  0.00177530  0.37284343  0.40809129     0.00000
C2038       C  0.51463638  0.38628350  0.42750654    -0.08500
C2039       C  0.54747419  0.40994614  0.42492951     0.61900
H2040       H  0.53171188  0.36789070  0.45669654     0.12600
H2041       H  0.94676130  0.38674957  0.41325080     0.12600
C2042       C  0.92983643  0.35610670  0.44779066     0.62100
F2043       F  0.56608259  0.41458382  0.44281538    -0.23100
F2044       F  0.53735086  0.44318158  0.41847569    -0.20400
F2045       F  0.57032814  0.39470702  0.41109049    -0.20100
F2046       F  0.93078679  0.34665281  0.46780848    -0.20100
F2047       F  0.90776035  0.33233552  0.43752282    -0.20400
F2048       F  0.91519855  0.38962197  0.44676751    -0.23100
C2049       C  0.62696033  0.46358495  0.42019152    -0.05900
C2050       C  0.61305049  0.49684257  0.41483667     0.00000
C2051       C  0.63721839  0.02371983  0.42429256    -0.08600
C2052       C  0.65774841  0.01775642  0.44170993    -0.06000
C2053       C  0.65600710  0.48951375  0.44936228     0.00000
C2054       C  0.64785419  0.45925866  0.43750599    -0.08500
C2055       C  0.66220785  0.42293058  0.44270647     0.61900
H2056       H  0.62259892  0.44093666  0.41032928     0.12600
H2057       H  0.67146410  0.03967391  0.44924060     0.12600
C2058       C  0.63394599  0.06142530  0.41662966     0.62100
F2059       F  0.64486005  0.39614563  0.43191307    -0.23100
F2060       F  0.65715643  0.41623737  0.46294586    -0.20400
F2061       F  0.68385965  0.90666900  0.44923784    -0.20100
F2062       F  0.56495200  0.55759888  0.42184532    -0.20100
F2063       F  0.64841814  0.06377029  0.39753065    -0.20400
F2064       F  0.65196182  0.08582129  0.42879015    -0.23100
C2065       C  0.86515735  0.45549036  0.41737874    -0.05900
C2066       C  0.87898523  0.48859948  0.41102594     0.00000
C2067       C  0.84918627  0.02381055  0.41536633    -0.08600
C2068       C  0.83545422  0.02015736  0.43486026    -0.06000
C2069       C  0.84058926  0.48265034  0.44743817     0.00000
C2070       C  0.84551118  0.45211858  0.43534834    -0.08500
C2071       C  0.82929896  0.41653565  0.44132440     0.61900
H2072       H  0.86841104  0.43244107  0.40773838     0.12600
H2073       H  0.81695112  0.03950571  0.44079492     0.12600
C2074       C  0.83700027  0.05477661  0.40262964     0.62100
F2075       F  0.89863002  0.90952223  0.44208948    -0.23100
F2076       F  0.84413814  0.91228928  0.45603139    -0.20400
F2077       F  0.84070512  0.40786922  0.46044104    -0.20100
F2078       F  0.82219285  0.04225995  0.38481791    -0.20100
F2079       F  0.92597014  0.55366156  0.41468284    -0.20400
F2080       F  0.88570051  0.57957413  0.43447016    -0.23100
C2081       C  0.62468098  0.96163630  0.57977445    -0.05900
C2082       C  0.62512293  0.99452856  0.59007719     0.00000
C2083       C  0.64812605  0.02232363  0.58316678    -0.08600
C2084       C  0.66706705  0.01708567  0.56519972    -0.06000
C2085       C  0.66689209  0.98417120  0.55526755     0.00000
C2086       C  0.64668680  0.95546707  0.56302067    -0.08500
C2087       C  0.65016345  0.91823772  0.55434967     0.61900
H2088       H  0.60793837  0.94018974  0.58538484     0.12600
H2089       H  0.66185585  0.55981816  0.55666003     0.12600
C2090       C  0.65550629  0.05607269  0.59528506     0.62100
F2091       F  0.70047640  0.43577368  0.55455641    -0.23100
F2092       F  0.64970855  0.42838477  0.53660849    -0.20400
F2093       F  0.62975992  0.89363814  0.56485132    -0.20100
F2094       F  0.64913432  0.56726913  0.61244096    -0.20100
F2095       F  0.62537442  0.07656879  0.59606473    -0.20400
F2096       F  0.68264163  0.07662264  0.58695112    -0.23100
C2097       C  0.86516709  0.03246930  0.58302634    -0.05900
C2098       C  0.88483858  0.00248217  0.58852246     0.00000
C2099       C  0.84940854  0.46922660  0.58496542    -0.08600
C2100       C  0.83467459  0.47028786  0.56558615    -0.06000
C2101       C  0.84783542  0.00378971  0.55172401     0.00000
C2102       C  0.84669784  0.03373131  0.56464614    -0.08500
C2103       C  0.82578429  0.06650482  0.55902513     0.61900
H2104       H  0.86307465  0.05438375  0.59360196     0.12600
H2105       H  0.81429685  0.45101025  0.56109325     0.12600
C2106       C  0.83336378  0.44339686  0.60014470     0.62100
F2107       F  0.83038232  0.09363697  0.57303163    -0.23100
F2108       F  0.78962180  0.05846288  0.55776313    -0.18800
F2109       F  0.83754178  0.07880951  0.54059802    -0.20100
F2110       F  0.82133540  0.46210550  0.61674649    -0.20100
F2111       F  0.85828756  0.41905823  0.60623328    -0.20400
F2112       F  0.80450553  0.42443526  0.59220482    -0.23100
C2113       C  0.96852591  0.12260886  0.58038687    -0.05900
C2114       C  0.00052592  0.12493290  0.59153410     0.00000
C2115       C  0.52602826  0.12514650  0.57332940    -0.08600
C2116       C  0.52133909  0.14514760  0.55585174    -0.06000
C2117       C  0.48909452  0.16195802  0.55182243     0.00000
C2118       C  0.96334128  0.14219543  0.56281138    -0.08500
C2119       C  0.92594071  0.14120775  0.55380730     0.61900
H2120       H  0.94654252  0.10619161  0.58583693     0.12600
H2121       H  0.54357557  0.14983034  0.54571505     0.12600
C2122       C  0.56241321  0.10960921  0.57738100     0.62100
F2123       F  0.91561421  0.10630047  0.55007833    -0.23100
F2124       F  0.92327346  0.15971481  0.53603268    -0.20400
F2125       F  0.90237721  0.15581227  0.56752639    -0.20100
F2126       F  0.55889114  0.07334963  0.58026952    -0.20100
F2127       F  0.57715234  0.12597894  0.59422968    -0.20400
F2128       F  0.58595193  0.11485663  0.56156523    -0.23100
C2129       C  0.50947564  0.38367259  0.57771828    -0.05900
C2130       C  0.99833877  0.38535712  0.58770745     0.00000
C2131       C  0.97114609  0.38932637  0.57290777    -0.08600
C2132       C  0.97189905  0.36765836  0.55555825    -0.06000
C2133       C  0.48087075  0.34306334  0.55409123     0.00000
C2134       C  0.51037239  0.36513779  0.55934113    -0.08500
C2135       C  0.54347531  0.36727925  0.54612471     0.61900
H2136       H  0.53163147  0.40114172  0.58184555     0.12600
H2137       H  0.94988067  0.36789912  0.54492968     0.12600
C2138       C  0.94150422  0.41607883  0.57512849     0.62100
F2139       F  0.56949334  0.38977256  0.55421811    -0.23100
F2140       F  0.53438348  0.37984092  0.52735057    -0.20400
F2141       F  0.55811854  0.33389202  0.54402931    -0.20100
F2142       F  0.95569798  0.44885172  0.58075930    -0.20100
F2143       F  0.91761470  0.40438894  0.58945926    -0.20400
F2144       F  0.92291945  0.42047414  0.55728122    -0.23100
C2145       C  0.54426108  0.24968358  0.21744915    -0.05900
C2146       C  0.54631782  0.24598429  0.23870292     0.00000
C2147       C  0.58218667  0.24298849  0.24718181    -0.08600
C2148       C  0.61210752  0.24649371  0.23434462    -0.06000
C2149       C  0.60879526  0.25250193  0.21383775     0.00000
C2150       C  0.57456374  0.25434659  0.20513382    -0.08500
C2151       C  0.57021243  0.26114351  0.18276439     0.61900
H2152       H  0.51861444  0.24947611  0.21009985     0.12600
H2153       H  0.63902240  0.24354207  0.24012030     0.12600
C2154       C  0.59095964  0.23372345  0.26907494     0.62100
F2155       F  0.53458966  0.26317639  0.17716297    -0.23100
F2156       F  0.58564534  0.23398297  0.17181780    -0.20400
F2157       F  0.58680642  0.29301925  0.17788411    -0.20100
F2158       F  0.58420558  0.19806018  0.27231249    -0.20100
F2159       F  0.57208974  0.25385787  0.28265220    -0.20400
F2160       F  0.62679081  0.23970520  0.27356928    -0.23100
C2161       C  0.92649476  0.27560622  0.21741872    -0.05900
C2162       C  0.90319026  0.24623513  0.21806991     0.00000
C2163       C  0.91257413  0.21707922  0.23000203    -0.08600
C2164       C  0.94595540  0.21769066  0.23976016    -0.06000
C2165       C  0.97157198  0.24619792  0.23857988     0.00000
C2166       C  0.96058747  0.27635528  0.22668613    -0.08500
C2167       C  0.98113254  0.31148461  0.22381594     0.61900
H2168       H  0.91793987  0.29853139  0.20903112     0.12600
H2169       H  0.95114091  0.19502337  0.24885696     0.12600
C2170       C  0.88740937  0.18526279  0.23294130     0.62100
F2171       F  0.97025520  0.33570655  0.23821688    -0.23100
F2172       F  0.97389415  0.32550957  0.20505417    -0.20400
F2173       F  0.01760154  0.30864517  0.22456913    -0.20100
F2174       F  0.88784260  0.16388948  0.21592392    -0.20100
F2175       F  0.85286213  0.19649947  0.23652539    -0.20400
F2176       F  0.89733568  0.16476701  0.24918266    -0.23100
C2177       C  0.78418946  0.10811095  0.08378252    -0.05900
C2178       C  0.75499472  0.12966727  0.08861503     0.00000
C2179       C  0.72666600  0.13308732  0.07443032    -0.08600
C2180       C  0.72703905  0.11192783  0.05687818    -0.06000
C2181       C  0.75485126  0.08835002  0.05296337     0.00000
C2182       C  0.78476010  0.08749649  0.06605972    -0.08500
C2183       C  0.81704974  0.06481453  0.06135235     0.61900
H2184       H  0.80615313  0.10650372  0.09437199     0.12600
H2185       H  0.70475754  0.11242707  0.04643673     0.12600
C2186       C  0.69608954  0.15874521  0.07754504     0.62100
F2187       F  0.84494095  0.07144835  0.07467683    -0.23100
F2188       F  0.82922654  0.07220076  0.04217628    -0.20400
F2189       F  0.80793915  0.02917093  0.06249196    -0.20100
F2190       F  0.70952343  0.19209890  0.08264828    -0.20100
F2191       F  0.67375532  0.14644056  0.09261151    -0.20400
F2192       F  0.67571067  0.16231284  0.06028777    -0.23100
C2193       C  0.79810738  0.41563014  0.06739352    -0.05900
C2194       C  0.77273492  0.40634503  0.05253841     0.00000
C2195       C  0.74813586  0.37814044  0.05619579    -0.08600
C2196       C  0.74893666  0.36132018  0.07501979    -0.06000
C2197       C  0.77177753  0.37295633  0.09056514     0.00000
C2198       C  0.79734314  0.40034629  0.08666262    -0.08500
C2199       C  0.82156464  0.41571134  0.10307461     0.61900
H2200       H  0.81643792  0.43747383  0.06429146     0.12600
H2201       H  0.73143681  0.33891286  0.07782376     0.12600
C2202       C  0.72037893  0.36650073  0.04066200     0.62100
F2203       F  0.84193585  0.44423059  0.09629954    -0.23100
F2204       F  0.84494027  0.39031036  0.10979244    -0.20400
F2205       F  0.80091720  0.42750517  0.11898311    -0.20100
F2206       F  0.73716689  0.35111337  0.02435214    -0.20100
F2207       F  0.70099341  0.39536111  0.03430177    -0.20400
F2208       F  0.69641454  0.34172528  0.04833528    -0.23100
C2209       C  0.78141798  0.09643560  0.93919256    -0.05900
C2210       C  0.74764905  0.08707941  0.94678886     0.00000
C2211       C  0.71644196  0.09832438  0.93681776    -0.08600
C2212       C  0.72030783  0.11776376  0.91900420    -0.06000
C2213       C  0.75410196  0.12703643  0.91101889     0.00000
C2214       C  0.78545432  0.11652130  0.92152870    -0.08500
C2215       C  0.82305270  0.12545306  0.91427893     0.61900
H2216       H  0.80472819  0.08681216  0.94705218     0.12600
H2217       H  0.69649791  0.12542549  0.91100155     0.12600
C2218       C  0.67922747  0.09001439  0.94498891     0.62100
F2219       F  0.84905140  0.11248854  0.92703572    -0.23100
F2220       F  0.82770884  0.16193531  0.91341432    -0.20400
F2221       F  0.82852134  0.11047240  0.89548266    -0.20100
F2222       F  0.67546713  0.10597645  0.96365529    -0.20100
F2223       F  0.67386945  0.05380675  0.94687791    -0.20400
F2224       F  0.65259650  0.10242191  0.93249696    -0.23100
C2225       C  0.73678620  0.38464728  0.94488461    -0.05900
C2226       C  0.76608003  0.40806884  0.94677877     0.00000
C2227       C  0.79279088  0.40890455  0.93177575    -0.08600
C2228       C  0.78747959  0.38839351  0.91429163    -0.06000
C2229       C  0.75682920  0.36665746  0.91156637     0.00000
C2230       C  0.73184424  0.36330297  0.92759337    -0.08500
C2231       C  0.70047026  0.33726824  0.92680934     0.61900
H2232       H  0.71703267  0.38432567  0.95680636     0.12600
H2233       H  0.80694171  0.39022848  0.90227199     0.12600
C2234       C  0.82624371  0.43209776  0.93397698     0.62100
F2235       F  0.68216065  0.33603981  0.94490864    -0.23100
F2236       F  0.71267341  0.30345580  0.92265962    -0.20400
F2237       F  0.67661260  0.34735692  0.91212315    -0.20100
F2238       F  0.85177464  0.42358182  0.91972084    -0.20100
F2239       F  0.84127768  0.42746728  0.95278085    -0.20400
F2240       F  0.81779501  0.46744882  0.93167372    -0.23100
C2241       C  0.52628571  0.21645877  0.72259766    -0.05900
C2242       C  0.99913618  0.21633301  0.73836204     0.00000
C2243       C  0.97602170  0.18486246  0.74015639    -0.08600
C2244       C  0.97714258  0.15875947  0.72497244    -0.06000
C2245       C  0.00517065  0.15624486  0.71136830     0.00000
C2246       C  0.53119303  0.18584124  0.71054363    -0.08500
C2247       C  0.56456723  0.18269466  0.69764619     0.61900
H2248       H  0.54605443  0.23727398  0.72158347     0.12600
H2249       H  0.95726221  0.13745743  0.72491635     0.12600
C2250       C  0.95348662  0.17258612  0.75819931     0.62100
F2251       F  0.58607874  0.21291476  0.69873900    -0.23100
F2252       F  0.55503777  0.17735131  0.67771894    -0.20400
F2253       F  0.58466863  0.15443528  0.70420885    -0.20100
F2254       F  0.91887042  0.18440744  0.75668353    -0.20100
F2255       F  0.96838257  0.18240767  0.77618747    -0.20400
F2256       F  0.95124480  0.13578120  0.75911700    -0.23100
C2257       C  0.99421414  0.35260986  0.73538133    -0.05900
C2258       C  0.99135370  0.34898415  0.71468013     0.00000
C2259       C  0.48410352  0.31990126  0.70504767    -0.08600
C2260       C  0.48763703  0.28963391  0.71736875    -0.06000
C2261       C  0.99516896  0.28743671  0.73975665     0.00000
C2262       C  0.99452282  0.32316025  0.74841144    -0.08500
C2263       C  0.99317363  0.33259271  0.77086304     0.61900
H2264       H  0.99596081  0.37952586  0.74121938     0.12600
H2265       H  0.48241800  0.26412478  0.71045010     0.12600
C2266       C  0.47373606  0.31579238  0.68304903     0.62100
F2267       F  0.99343628  0.36894201  0.77437405    -0.23100
F2268       F  0.02238733  0.32001663  0.78081550    -0.20400
F2269       F  0.96200477  0.31989222  0.77936005    -0.20100
F2270       F  0.49949365  0.33166307  0.67103347    -0.20100
F2271       F  0.44122486  0.33194592  0.67980336    -0.20400
F2272       F  0.47034480  0.28047670  0.67726630    -0.23100
C2273       C  0.54587723  0.22085622  0.77109603    -0.05900
C2274       C  0.53913638  0.25268688  0.76051803     0.00000
C2275       C  0.57016927  0.27601128  0.75814342    -0.08600
C2276       C  0.59869218  0.27277716  0.77189649    -0.06000
C2277       C  0.60246758  0.24326074  0.78429372     0.00000
C2278       C  0.57655048  0.21557912  0.78299895    -0.08500
C2279       C  0.57966145  0.18146009  0.79494197     0.61900
H2280       H  0.52600576  0.20003225  0.77059749     0.12600
H2281       H  0.61998229  0.29272678  0.77197944     0.12600
C2282       C  0.57871863  0.30241351  0.74125277     0.62100
F2283       F  0.55039924  0.15894514  0.79213241    -0.23100
F2284       F  0.58189305  0.18941408  0.81527379    -0.20400
F2285       F  0.60976406  0.16327057  0.78890532    -0.20100
F2286       F  0.57349091  0.33681494  0.74792318    -0.20100
F2287       F  0.56017401  0.29658453  0.72368986    -0.20400
F2288       F  0.61445389  0.29971384  0.73588760    -0.23100
C2289       C  0.92713226  0.24968513  0.79611824    -0.05900
C2290       C  0.89631707  0.25239425  0.78433190     0.00000
C2291       C  0.89923699  0.25558448  0.76348390    -0.08600
C2292       C  0.93337166  0.25455841  0.75489031    -0.06000
C2293       C  0.96583225  0.25133432  0.76613161     0.00000
C2294       C  0.96224435  0.24966776  0.78796749    -0.08500
C2295       C  0.99212954  0.24505154  0.80364737     0.61900
H2296       H  0.92296181  0.24677190  0.81214292     0.12600
H2297       H  0.93464353  0.25442990  0.73866264     0.12600
C2298       C  0.86614486  0.25702631  0.75017816     0.62100
F2299       F  0.98033768  0.25289509  0.82291165    -0.23100
F2300       F  0.02089952  0.26726987  0.80054548    -0.20400
F2301       F  0.00338538  0.21033878  0.80407199    -0.20100
F2302       F  0.84414082  0.28414230  0.75652342    -0.20100
F2303       F  0.84755830  0.22503316  0.75130313    -0.20400
F2304       F  0.87476967  0.26302364  0.73021878    -0.23100
C2305       C  0.85152051  0.00633092  0.73549594    -0.05900
C2306       C  0.84897674  0.00908871  0.71471518     0.00000
C2307       C  0.81540955  0.01500440  0.70579799    -0.08600
C2308       C  0.78462736  0.01291974  0.71794069    -0.06000
C2309       C  0.78589117  0.00358652  0.73860000     0.00000
C2310       C  0.82096603  0.00597206  0.74796490    -0.08500
C2311       C  0.82502479  0.51004409  0.76914238     0.61900
H2312       H  0.87816601  0.00514591  0.74187919     0.12600
H2313       H  0.75924927  0.01797709  0.71089336     0.12600
C2314       C  0.81213437  0.02284189  0.68348017     0.62100
F2315       F  0.86096085  0.50609556  0.77367465    -0.23100
F2316       F  0.80682252  0.48525786  0.78024923    -0.20400
F2317       F  0.81876412  0.04431167  0.77659205    -0.20100
F2318       F  0.82151466  0.49631953  0.67089214    -0.20100
F2319       F  0.83169268  0.05320873  0.67894638    -0.20400
F2320       F  0.77698412  0.02828142  0.67775542    -0.23100
C2321       C  0.67418179  0.97672912  0.70828764    -0.05900
C2322       C  0.64931887  0.00285762  0.71285897     0.00000
C2323       C  0.65126315  0.52969446  0.72902809    -0.08600
C2324       C  0.68332168  0.52496128  0.73994936    -0.06000
C2325       C  0.71484902  0.99666182  0.73575449     0.00000
C2326       C  0.70639974  0.97216838  0.71919124    -0.08500
C2327       C  0.72874894  0.94033650  0.71219335     0.61900
H2328       H  0.66778872  0.95972077  0.69554685     0.12600
H2329       H  0.68593871  0.54149567  0.75308044     0.12600
C2330       C  0.62586890  0.55933233  0.73493271     0.62100
F2331       F  0.71149719  0.92013702  0.69748490    -0.23100
F2332       F  0.70337637  0.42280979  0.69685405    -0.20400
F2333       F  0.76043598  0.95135738  0.70368639    -0.20100
F2334       F  0.59243762  0.54514772  0.73933344    -0.20100
F2335       F  0.63002208  0.08069985  0.72081300    -0.20400
F2336       F  0.63774446  0.57837086  0.75163627    -0.23100
C2337       C  0.75235716  0.06269512  0.75563783    -0.05900
C2338       C  0.74812717  0.02904436  0.76544195     0.00000
C2339       C  0.74250495  0.03095045  0.78710466    -0.08600
C2340       C  0.74476609  0.06475076  0.79687126    -0.06000
C2341       C  0.75017567  0.09656684  0.78658920     0.00000
C2342       C  0.75385905  0.09569400  0.76564622    -0.08500
C2343       C  0.75878253  0.12985141  0.75386900     0.61900
H2344       H  0.75379425  0.06314520  0.73943293     0.12600
H2345       H  0.74105412  0.06722267  0.81296337     0.12600
C2346       C  0.73015851  0.00050989  0.80061608     0.62100
F2347       F  0.76226714  0.12355598  0.73341175    -0.23100
F2348       F  0.78930483  0.14771649  0.76044497    -0.20400
F2349       F  0.72944972  0.15129414  0.75680893    -0.20100
F2350       F  0.75279222  0.97206933  0.79967906    -0.20100
F2351       F  0.69562599  0.99059195  0.79550183    -0.20400
F2352       F  0.72907520  0.01032375  0.82073798    -0.23100
C2353       C  0.71174074  0.44657254  0.76708053    -0.05900
C2354       C  0.74485386  0.45846981  0.75881989     0.00000
C2355       C  0.77294641  0.43207907  0.75938809    -0.08600
C2356       C  0.77082746  0.40509558  0.77389139    -0.06000
C2357       C  0.73913478  0.39598550  0.78380722     0.00000
C2358       C  0.70812180  0.41603099  0.77938618    -0.08500
C2359       C  0.67160550  0.40677488  0.78813118     0.61900
H2360       H  0.68839030  0.46252650  0.76458846     0.12600
H2361       H  0.79387980  0.38828545  0.77597228     0.12600
C2362       C  0.80301534  0.42483488  0.74430491     0.62100
F2363       F  0.64569652  0.43071520  0.78248774    -0.23100
F2364       F  0.67329004  0.40720839  0.80891915    -0.20400
F2365       F  0.66074031  0.37346349  0.78137777    -0.20100
F2366       F  0.83585487  0.43271099  0.75299587    -0.20100
F2367       F  0.80012275  0.44202819  0.72638784    -0.20400
F2368       F  0.80263602  0.38898911  0.73923617    -0.23100
C2369       C  0.60444624  0.28148326  0.06084135    -0.05900
C2370       C  0.59048146  0.24888985  0.05403989     0.00000
C2371       C  0.59750960  0.21760352  0.06484677    -0.08600
C2372       C  0.61826515  0.22014021  0.08249426    -0.06000
C2373       C  0.63169707  0.25294408  0.08985985     0.00000
C2374       C  0.62447929  0.28441919  0.07875240    -0.08500
C2375       C  0.63653626  0.32125604  0.08569960     0.61900
H2376       H  0.59779844  0.30499187  0.05240173     0.12600
H2377       H  0.62342525  0.19630288  0.09092600     0.12600
C2378       C  0.58294037  0.18176526  0.05767317     0.62100
F2379       F  0.62758005  0.34734352  0.07208428    -0.23100
F2380       F  0.67321244  0.32229789  0.08786148    -0.20400
F2381       F  0.62046228  0.32953446  0.10383991    -0.20100
F2382       F  0.59488291  0.17509537  0.03834449    -0.20100
F2383       F  0.54592420  0.18163838  0.05768821    -0.20400
F2384       F  0.59398873  0.15435527  0.06985313    -0.23100
C2385       C  0.89118753  0.27435172  0.05663540    -0.05900
C2386       C  0.90389493  0.24155116  0.04981417     0.00000
C2387       C  0.89645577  0.21064231  0.06109353    -0.08600
C2388       C  0.88047372  0.21426780  0.08006375    -0.06000
C2389       C  0.87075153  0.24754483  0.08797199     0.00000
C2390       C  0.87415874  0.27799777  0.07542847    -0.08500
C2391       C  0.86011649  0.31416672  0.08146786     0.61900
H2392       H  0.89695611  0.29761726  0.04763920     0.12600
H2393       H  0.87650471  0.19057241  0.08900003     0.12600
C2394       C  0.90575162  0.17342666  0.05419283     0.62100
F2395       F  0.86265343  0.33844820  0.06596675    -0.23100
F2396       F  0.87955219  0.32768715  0.09758560    -0.20400
F2397       F  0.82436957  0.31085887  0.08651460    -0.20100
F2398       F  0.92987896  0.15901495  0.06753576    -0.20100
F2399       F  0.92042128  0.17240859  0.03512959    -0.20400
F2400       F  0.87488532  0.15262876  0.05397092    -0.23100
C2401       C  0.59099781  0.22585607  0.94030235    -0.05900
C2402       C  0.58303840  0.26045293  0.94677780     0.00000
C2403       C  0.59567501  0.28973478  0.93549203    -0.08600
C2404       C  0.61488571  0.28334089  0.91775433    -0.06000
C2405       C  0.62314508  0.24888239  0.91098699     0.00000
C2406       C  0.61095481  0.21938691  0.92256706    -0.08500
C2407       C  0.61879291  0.18137037  0.91653056     0.61900
H2408       H  0.58114875  0.20391257  0.94927458     0.12600
H2409       H  0.62330982  0.30583586  0.90886938     0.12600
C2410       C  0.58933383  0.32784248  0.94220690     0.62100
F2411       F  0.60446031  0.15721166  0.93000891    -0.23100
F2412       F  0.65540097  0.17670869  0.91600227    -0.20400
F2413       F  0.60415240  0.17388445  0.89781716    -0.20100
F2414       F  0.59981490  0.33234766  0.96204616    -0.20100
F2415       F  0.55349991  0.33567734  0.94027368    -0.20400
F2416       F  0.60852243  0.35206231  0.93077925    -0.23100
C2417       C  0.90291534  0.28764924  0.93700171    -0.05900
C2418       C  0.91931089  0.25658229  0.94341896     0.00000
C2419       C  0.91619557  0.22528772  0.93164694    -0.08600
C2420       C  0.89594978  0.22611684  0.91373192    -0.06000
C2421       C  0.87945821  0.25739222  0.90705061     0.00000
C2422       C  0.88320686  0.28895204  0.91899817    -0.08500
C2423       C  0.86624017  0.32393625  0.91338377     0.61900
H2424       H  0.90604793  0.31119966  0.94635963     0.12600
H2425       H  0.89344843  0.20225800  0.90460022     0.12600
C2426       C  0.93517967  0.19164907  0.93771608     0.62100
F2427       F  0.87227074  0.35015615  0.92778584    -0.23100
F2428       F  0.82965026  0.31907531  0.91162410    -0.20400
F2429       F  0.88045800  0.33612904  0.89547527    -0.20100
F2430       F  0.92824103  0.16386017  0.92442357    -0.20100
F2431       F  0.92401603  0.18126374  0.95662317    -0.20400
F2432       F  0.97175543  0.19793335  0.93808437    -0.23100
C2433       C  0.82366081  0.99790937  0.29622088    -0.05900
C2434       C  0.84759542  0.49609945  0.28700766     0.00000
C2435       C  0.84614966  0.49724066  0.26604135    -0.08600
C2436       C  0.81269719  0.49902698  0.25668747    -0.06000
C2437       C  0.77944252  0.49911970  0.26722802     0.00000
C2438       C  0.78858902  0.99681027  0.28808421    -0.08500
C2439       C  0.75919375  0.99657768  0.30415864     0.61900
H2440       H  0.82772187  0.99953468  0.31235511     0.12600
H2441       H  0.81244739  0.50134838  0.24049368     0.12600
C2442       C  0.88024445  0.49805871  0.25363769     0.62100
F2443       F  0.77141075  0.98215714  0.32198156    -0.23100
F2444       F  0.72045983  0.48037227  0.29908222    -0.20400
F2445       F  0.74895097  0.03087288  0.30847753    -0.20100
F2446       F  0.90068689  0.46877536  0.25806416    -0.20100
F2447       F  0.90710561  0.02188220  0.25401771    -0.20400
F2448       F  0.87329051  0.49757674  0.23317245    -0.23100
C2449       C  0.70373714  0.02801045  0.27495873    -0.05900
C2450       C  0.70784560  0.50058728  0.26207458     0.00000
C2451       C  0.67874841  0.47489197  0.26020060    -0.08600
C2452       C  0.65112201  0.47590285  0.27462343    -0.06000
C2453       C  0.64550600  0.50555790  0.28697988     0.00000
C2454       C  0.67355173  0.02931428  0.28775456    -0.08500
C2455       C  0.66904900  0.06174080  0.30132582     0.61900
H2456       H  0.72198458  0.05024523  0.27503949     0.12600
H2457       H  0.63170090  0.45419396  0.27508628     0.12600
C2458       C  0.67107174  0.44873037  0.24291148     0.62100
F2459       F  0.69782696  0.08522836  0.30012691    -0.23100
F2460       F  0.66222883  0.56722593  0.31566548    -0.20400
F2461       F  0.63879806  0.07997380  0.29569236    -0.20100
F2462       F  0.68022342  0.41471069  0.24835721    -0.20100
F2463       F  0.69239847  0.95914269  0.22382435    -0.20400
F2464       F  0.63471742  0.44813102  0.23862964    -0.23100
C2465       C  0.72542206  0.03920612  0.22439269    -0.05900
C2466       C  0.75141951  0.03559733  0.23983262     0.00000
C2467       C  0.77468112  0.06679239  0.24284239    -0.08600
C2468       C  0.77596633  0.09330345  0.22787678    -0.06000
C2469       C  0.75036499  0.09580337  0.21272309     0.00000
C2470       C  0.72437488  0.06819551  0.21094781    -0.08500
C2471       C  0.69628339  0.06833525  0.19443054     0.61900
H2472       H  0.70541479  0.01867234  0.22277448     0.12600
H2473       H  0.79555404  0.11479722  0.22915530     0.12600
C2474       C  0.79519276  0.07835302  0.26189168     0.62100
F2475       F  0.67801446  0.03613133  0.19296068    -0.23100
F2476       F  0.71237078  0.07468134  0.17603720    -0.20400
F2477       F  0.67161945  0.09448413  0.19844168    -0.20100
F2478       F  0.83090420  0.06987203  0.26021494    -0.20100
F2479       F  0.78120744  0.06478451  0.27923742    -0.20400
F2480       F  0.79354760  0.11490778  0.26453551    -0.23100
C2481       C  0.75582607  0.40002893  0.23244460    -0.05900
C2482       C  0.75940325  0.40506184  0.21195879     0.00000
C2483       C  0.76266943  0.43977037  0.20447159    -0.08600
C2484       C  0.76047797  0.46872375  0.21801279    -0.06000
C2485       C  0.75257430  0.46483579  0.23889814     0.00000
C2486       C  0.75405017  0.42850262  0.24635221    -0.08500
C2487       C  0.75538908  0.41731702  0.26839770     0.61900
H2488       H  0.75492090  0.37269984  0.23740483     0.12600
H2489       H  0.76592153  0.49459499  0.21193576     0.12600
C2490       C  0.76861029  0.44609731  0.18219124     0.62100
F2491       F  0.75491550  0.38074964  0.27072967    -0.23100
F2492       F  0.72622844  0.42929620  0.27864661    -0.20400
F2493       F  0.78673049  0.42914090  0.27724842    -0.20100
F2494       F  0.74166586  0.42951981  0.17113947    -0.20100
F2495       F  0.80124107  0.43233779  0.17652357    -0.20400
F2496       F  0.76860545  0.48191754  0.17755927    -0.23100
C2497       C  0.75036862  0.99881757  0.25225888    -0.02700
N2498       N  0.55280998  0.76841242  0.00211506    -0.36800
N2499       N  0.99908785  0.73681012  0.02922836    -0.57300
N2500       N  0.94412596  0.73947770  0.99793794    -0.36800
N2501       N  0.99869366  0.76453278  0.95459992    -0.57300
C2502       C  0.57507600  0.76063497  0.01735972     0.26800
C2503       C  0.57234289  0.77038555  0.98506592     0.26800
C2504       C  0.92269997  0.73199928  0.01371339     0.26800
C2505       C  0.92340678  0.74158567  0.98134844     0.26800
C2506       C  0.52820241  0.75138944  0.04359054     0.35400
C2507       C  0.96973835  0.73310596  0.04096908     0.35400
C2508       C  0.52128892  0.78420773  0.96378960     0.35400
C2509       C  0.96684248  0.77507756  0.96197833     0.35400
C2510       C  0.60981945  0.75877539  0.01006992    -0.22100
C2511       C  0.60798958  0.76433648  0.98951001    -0.22100
C2512       C  0.88764262  0.72822437  0.00680945    -0.22100
C2513       C  0.88821248  0.73366906  0.98621126    -0.22100
C2514       C  0.51690466  0.75101609  0.06344198    -0.23100
C2515       C  0.97985829  0.73352200  0.06109175    -0.23100
C2516       C  0.50485240  0.81071703  0.97482215    -0.23100
C2517       C  0.97129217  0.80396709  0.97483065    -0.23100
C2518       C  0.56436123  0.75565303  0.03754629    -0.18500
C2519       C  0.55743296  0.77561506  0.96575217    -0.18500
C2520       C  0.93662673  0.75264166  0.96249288    -0.18500
C2521       C  0.93364727  0.73036757  0.03416509    -0.18500
H2522       H  0.63377935  0.75311664  0.01856837     0.14400
H2523       H  0.63021520  0.76390452  0.97908510     0.14400
H2524       H  0.86403691  0.72262040  0.01573128     0.14400
H2525       H  0.86528009  0.73364701  0.97623859     0.14400
H2526       H  0.53285079  0.75535081  0.07687120     0.12700
H2527       H  0.96287084  0.73130613  0.07420396     0.12700
H2528       H  0.51786524  0.83112014  0.98392368     0.12700
H2529       H  0.95098889  0.81604587  0.98415277     0.12700
H2530       H  0.52554702  0.77265231  0.00326371     0.26000
H2531       H  0.97161998  0.74353010  0.99798126     0.26000
C2532       C  0.74571830  0.49725158  0.74927590    -0.02700
C2533       C  0.49720608  0.75608642  0.75061940    -0.02700
N2534       N  0.74956430  0.94228066  0.00065197    -0.36800
N2535       N  0.76064686  0.49597326  0.03045899    -0.57300
N2536       N  0.75567441  0.55183845  0.00063174    -0.36800
N2537       N  0.76005526  0.49864766  0.96967189    -0.57300
C2538       C  0.75702420  0.92375646  0.01745970     0.26800
C2539       C  0.76166678  0.92332963  0.98476405     0.26800
C2540       C  0.76348151  0.57110865  0.01730049     0.26800
C2541       C  0.76304656  0.57252607  0.98461044     0.26800
C2542       C  0.73837557  0.96945123  0.04213259     0.35400
C2543       C  0.75106761  0.52373496  0.04211426     0.35400
C2544       C  0.74859066  0.96737842  0.95814287     0.35400
C2545       C  0.75142396  0.52691405  0.95832289     0.35400
C2546       C  0.77393325  0.89247272  0.01218949    -0.22100
C2547       C  0.77642999  0.89198327  0.99147096    -0.22100
C2548       C  0.77556273  0.60471390  0.01189567    -0.22100
C2549       C  0.77507092  0.60569209  0.99117246    -0.22100
C2550       C  0.72590055  0.98069642  0.06074180    -0.23100
C2551       C  0.73956072  0.51200453  0.06076184    -0.23100
C2552       C  0.73998315  0.97625904  0.93852620    -0.23100
C2553       C  0.74061886  0.51573710  0.93931332    -0.23100
C2554       C  0.74748262  0.93408538  0.03722552    -0.18500
C2555       C  0.75759687  0.93285793  0.96439230    -0.18500
C2556       C  0.75638747  0.56267896  0.96442214    -0.18500
C2557       C  0.75766484  0.55955856  0.03715532    -0.18500
H2558       H  0.78300914  0.87191791  0.02220126     0.14400
H2559       H  0.78780050  0.87099593  0.98238299     0.14400
H2560       H  0.78336842  0.62640749  0.02183912     0.14400
H2561       H  0.78236980  0.62833652  0.98204474     0.14400
H2562       H  0.71827694  0.96433236  0.07339462     0.12700
H2563       H  0.73125728  0.52802956  0.07347674     0.12700
H2564       H  0.73718392  0.95869703  0.92562339     0.12700
H2565       H  0.73339677  0.53195906  0.92662556     0.12700
H2566       H  0.73361687  0.96466438  0.99990528     0.26000
H2567       H  0.74210190  0.52749884  0.00032163     0.26000
N2568       N  0.72925842  0.82402260  0.86540897    -0.06300
N2569       N  0.71844437  0.83974676  0.88210387    -0.58400
N2570       N  0.75973875  0.82465814  0.81820748    -0.06000
N2571       N  0.77066283  0.84795610  0.80475340    -0.60500
N2572       N  0.72455748  0.82391590  0.81908957    -0.05600
N2573       N  0.71108929  0.84699383  0.80631212    -0.58400
N2574       N  0.76439074  0.82476418  0.86444909    -0.05200
N2575       N  0.77806815  0.84100490  0.88043374    -0.60900
C2576       C  0.74911009  0.85015713  0.89145141     0.95900
C2577       C  0.74014485  0.86177629  0.79726265     0.95700
N2578       N  0.82132336  0.73168146  0.81687045    -0.06500
N2579       N  0.84367611  0.71996403  0.80301846    -0.59000
N2580       N  0.82465678  0.76835287  0.86302309    -0.04600
N2581       N  0.84273089  0.78159901  0.87851466    -0.60200
N2582       N  0.82535906  0.73349662  0.86323299    -0.06500
N2583       N  0.84382629  0.72236745  0.87886768    -0.59200
N2584       N  0.82052727  0.76662848  0.81663521    -0.04200
N2585       N  0.84216930  0.77915929  0.80260893    -0.60300
Mn2586     Mn  0.79301806  0.79685182  0.84040024     1.18400
C2587       C  0.85602788  0.74980378  0.79390232     0.98000
C2588       C  0.85446037  0.75266785  0.88840359     0.98600
N2589       N  0.66538605  0.76121521  0.82144437    -0.06500
N2590       N  0.64159183  0.77194190  0.80819390    -0.62800
N2591       N  0.67073247  0.72990709  0.86860539    -0.05300
N2592       N  0.65300976  0.71949004  0.88486880    -0.63500
N2593       N  0.67058054  0.76473536  0.86743512    -0.06000
N2594       N  0.65300004  0.77854732  0.88268177    -0.63100
N2595       N  0.66539608  0.72621908  0.82219184    -0.04900
N2596       N  0.64151118  0.71267467  0.80945052    -0.63800
Mn2597     Mn  0.69671346  0.79414161  0.84311468     1.10700
C2598       C  0.62681021  0.74145642  0.80074061     0.99200
C2599       C  0.64208156  0.75028500  0.89361274     0.99300
N2600       N  0.76747005  0.67428783  0.86614910    -0.06000
N2601       N  0.78221012  0.66031916  0.88226223    -0.61400
N2602       N  0.72726529  0.66743634  0.82123571    -0.05400
N2603       N  0.71458879  0.64285362  0.80862803    -0.58100
N2604       N  0.76242864  0.66949368  0.81979371    -0.06700
N2605       N  0.77414443  0.64668668  0.80616233    -0.61000
N2606       N  0.73237984  0.67347970  0.86766098    -0.05600
N2607       N  0.72269530  0.65891055  0.88483595    -0.58200
Mn2608     Mn  0.79483208  0.70142835  0.84125693     1.20200
Mn2609     Mn  0.69807728  0.69819408  0.84486863     1.10100
Cl2610     Cl  0.74556124  0.74760978  0.84212663    -0.86100
C2611       C  0.75406010  0.65080134  0.89388747     0.96200
C2612       C  0.74406045  0.63064957  0.79899223     0.96000
N2613       N  0.74211352  0.82849821  0.18125264    -0.06300
N2614       N  0.73099085  0.85585519  0.19203752    -0.58400
N2615       N  0.77635031  0.82297205  0.13496259    -0.06000
N2616       N  0.78880106  0.83846946  0.11859852    -0.60500
N2617       N  0.74118428  0.82404502  0.13530164    -0.05600
N2618       N  0.72897923  0.83998851  0.11912781    -0.58400
N2619       N  0.77745020  0.82805904  0.18086309    -0.05200
N2620       N  0.79082222  0.85523304  0.19137471    -0.60900
C2621       C  0.76152607  0.87230076  0.19820001     0.95900
C2622       C  0.75894495  0.84907709  0.10891915     0.95700
N2623       N  0.83102264  0.72766654  0.13559582    -0.06500
N2624       N  0.84462849  0.71411941  0.11895118    -0.59000
N2625       N  0.83436149  0.76372855  0.18183456    -0.04600
N2626       N  0.85855653  0.77506150  0.19502260    -0.60200
N2627       N  0.83224815  0.72873924  0.18202887    -0.06500
N2628       N  0.85501869  0.71591552  0.19525148    -0.59200
N2629       N  0.83254623  0.76251346  0.13514576    -0.04200
N2630       N  0.84732729  0.77323798  0.11814078    -0.60300
Mn2631     Mn  0.80616191  0.79493486  0.15845604     1.18400
C2632       C  0.85473143  0.74277992  0.10806624     0.98000
C2633       C  0.87112146  0.74499907  0.20352993     0.98600
N2634       N  0.67952236  0.76925163  0.13584588    -0.06500
N2635       N  0.66227711  0.78320524  0.12059680    -0.62800
N2636       N  0.67623110  0.73316833  0.18122315    -0.05300
N2637       N  0.65117868  0.72133625  0.19360810    -0.63500
N2638       N  0.67809470  0.76822601  0.18186532    -0.06000
N2639       N  0.65405808  0.78069850  0.19461741    -0.63100
N2640       N  0.67788657  0.73443623  0.13494309    -0.04900
N2641       N  0.65919673  0.72407738  0.11897948    -0.63800
Mn2642     Mn  0.70971718  0.79801737  0.15899119     1.10700
C2643       C  0.64945838  0.75491847  0.11013805     0.99200
C2644       C  0.63779603  0.75115649  0.20202929     0.99300
N2645       N  0.76873900  0.66927326  0.18118286    -0.06000
N2646       N  0.77932224  0.64318207  0.19290377    -0.61400
N2647       N  0.73514766  0.67363893  0.13449895    -0.05400
N2648       N  0.72315574  0.65750399  0.11806000    -0.58100
N2649       N  0.77023896  0.67211886  0.13529932    -0.06700
N2650       N  0.78282555  0.65514899  0.11946600    -0.61000
N2651       N  0.73347157  0.67001062  0.18049633    -0.05600
N2652       N  0.71962967  0.64444109  0.19172557    -0.58200
Mn2653     Mn  0.80131057  0.69890445  0.15892070     1.20200
Mn2654     Mn  0.70492146  0.70216752  0.15789533     1.10100
Cl2655     Cl  0.75550476  0.74852888  0.15905565    -0.86100
C2656       C  0.74842452  0.62781051  0.19938896     0.96200
C2657       C  0.75323321  0.64629572  0.10874403     0.96000
N2658       N  0.57064556  0.52327202  0.67982765    -0.06300
N2659       N  0.59478487  0.53585901  0.69277245    -0.58400
N2660       N  0.57290249  0.98293322  0.63404787    -0.06000
N2661       N  0.59027225  0.96889318  0.61873517    -0.60500
N2662       N  0.56781725  0.51995795  0.63378881    -0.05600
N2663       N  0.58602360  0.53224956  0.61841251    -0.58400
N2664       N  0.57634239  0.98626933  0.68003547    -0.05200
N2665       N  0.59982117  0.97411366  0.69303670    -0.60900
C2666       C  0.60836816  0.50652511  0.70155271     0.95900
C2667       C  0.59750884  0.50312009  0.60870386     0.95700
N2668       N  0.97694127  0.92362104  0.63694854    -0.06500
N2669       N  0.96315668  0.90679175  0.62121621    -0.59000
N2670       N  0.51353473  0.92686990  0.68155403    -0.04600
N2671       N  0.52528719  0.90095475  0.69300121    -0.60200
N2672       N  0.97735593  0.92286011  0.68288006    -0.06500
N2673       N  0.96369499  0.89795728  0.69463545    -0.59200
N2674       N  0.51105121  0.92645406  0.63556870    -0.04200
N2675       N  0.52147716  0.90772316  0.61979561    -0.60300
Mn2676     Mn  0.54417797  0.95504494  0.65799544     1.18400
C2677       C  0.99202048  0.89491284  0.61113647     0.98000
C2678       C  0.99269534  0.88126182  0.70193648     0.98600
N2679       N  0.51010780  0.57738192  0.63172339    -0.06500
N2680       N  0.52142003  0.58930940  0.61412027    -0.62800
N2681       N  0.98367961  0.58029624  0.67937655    -0.05300
N2682       N  0.97214715  0.60773482  0.68995866    -0.63500
N2683       N  0.51207206  0.58568601  0.67788586    -0.06000
N2684       N  0.52537268  0.61254108  0.68860074    -0.63100
N2685       N  0.98453044  0.57109363  0.63342735    -0.04900
N2686       N  0.97290489  0.58458713  0.61645006    -0.63800
Mn2687     Mn  0.54090484  0.55224121  0.65611009     1.10700
C2688       C  0.00311524  0.59247391  0.60608902     0.99200
C2689       C  0.00238039  0.62438957  0.69666751     0.99300
N2690       N  0.92019518  0.98644667  0.68270974    -0.06000
N2691       N  0.89495313  0.97607782  0.69536715    -0.61400
N2692       N  0.92253149  0.51569363  0.63515230    -0.05400
N2693       N  0.90530549  0.52688206  0.61912585    -0.58100
N2694       N  0.92199326  0.98447103  0.63644091    -0.06700
N2695       N  0.90709615  0.97231809  0.61969072    -0.61000
N2696       N  0.92051811  0.51994582  0.68111631    -0.05600
N2697       N  0.89601646  0.53412200  0.69293911    -0.58200
Mn2698     Mn  0.94830282  0.95378029  0.66004545     1.20200
Mn2699     Mn  0.95227047  0.54743582  0.65755641     1.10100
Cl2700     Cl  0.99843124  0.49857642  0.65940273    -0.86100
C2701       C  0.87914704  0.50579948  0.70123877     0.96200
C2702       C  0.89284396  0.49657402  0.61031922     0.96000
N2703       N  0.98262768  0.91967439  0.31956919    -0.06300
N2704       N  0.97171459  0.89553369  0.30629349    -0.58400
N2705       N  0.51089933  0.92327886  0.36870597    -0.06000
N2706       N  0.52051255  0.90818263  0.38573652    -0.60500
N2707       N  0.97738097  0.92226952  0.36590450    -0.05600
N2708       N  0.96334073  0.90727405  0.38206428    -0.58400
N2709       N  0.51510539  0.91884266  0.32252323    -0.05200
N2710       N  0.52813639  0.89443065  0.31041332    -0.60900
C2711       C  0.00245830  0.88151024  0.29913440     0.95900
C2712       C  0.99217995  0.89813145  0.39318360     0.95700
N2713       N  0.56898074  0.51699622  0.36879511    -0.06500
N2714       N  0.58396557  0.52873476  0.38566606    -0.59000
N2715       N  0.57824234  0.97868510  0.32256712    -0.04600
N2716       N  0.60260835  0.96736575  0.30950784    -0.60200
N2717       N  0.57613237  0.51831667  0.32269987    -0.06500
N2718       N  0.59941435  0.53214502  0.31000611    -0.59200
N2719       N  0.57252311  0.97959714  0.36891343    -0.04200
N2720       N  0.58893864  0.96688561  0.38478661    -0.60300
Mn2721     Mn  0.54499407  0.94920525  0.34544732     1.18400
C2722       C  0.60053281  0.99607563  0.39497812     0.98000
C2723       C  0.61701483  0.99777074  0.30164558     0.98600
N2724       N  0.91890938  0.98032352  0.36310816    -0.06500
N2725       N  0.89906574  0.96800240  0.37793106    -0.62800
N2726       N  0.92126043  0.51371865  0.31854921    -0.05300
N2727       N  0.89632148  0.52582851  0.30641748    -0.63500
N2728       N  0.92418736  0.98024615  0.31733066    -0.06000
N2729       N  0.90227898  0.96793024  0.30325629    -0.63100
N2730       N  0.92109718  0.51009175  0.36454661    -0.04900
N2731       N  0.90462801  0.52066540  0.38099963    -0.63800
Mn2732     Mn  0.94998204  0.94978942  0.34128136     1.10700
C2733       C  0.88742813  0.99760011  0.38742951     0.99200
C2734       C  0.88935204  0.99744354  0.29455855     0.99300
N2735       N  0.51542721  0.57607903  0.32029840    -0.06000
N2736       N  0.52917491  0.60032799  0.30815840    -0.61400
N2737       N  0.97657761  0.57198584  0.36701392    -0.05400
N2738       N  0.96201627  0.58889965  0.38232954    -0.58100
N2739       N  0.50894949  0.57404275  0.36618511    -0.06700
N2740       N  0.51851174  0.59237926  0.38233309    -0.61000
N2741       N  0.98040723  0.57729060  0.32131526    -0.05600
N2742       N  0.96899829  0.60224750  0.30905225    -0.58200
Mn2743     Mn  0.54322220  0.54710392  0.34447471     1.20200
Mn2744     Mn  0.94905761  0.54383571  0.34253432     1.10100
Cl2745     Cl  0.99863627  0.99784000  0.34297683    -0.86100
C2746       C  0.99962437  0.61832445  0.30270675     0.96200
C2747       C  0.99042436  0.60091135  0.39310424     0.96000
N2748       N  0.48716739  0.80505311  0.50174368    -0.36800
N2749       N  0.49143879  0.74825496  0.53021943    -0.57300
N2750       N  0.48860859  0.69568626  0.49840289    -0.36800
N2751       N  0.48269188  0.75228019  0.46990051    -0.57300
C2752       C  0.47934797  0.82206307  0.51912579     0.26800
C2753       C  0.47330297  0.82414311  0.48655419     0.26800
C2754       C  0.48050706  0.67516698  0.51430085     0.26800
C2755       C  0.47877479  0.67736898  0.48177497     0.26800
C2756       C  0.50127136  0.77604797  0.54205507     0.35400
C2757       C  0.49948595  0.71858572  0.54044119     0.35400
C2758       C  0.48798703  0.78218436  0.45923477     0.35400
C2759       C  0.49028641  0.72511692  0.45735151     0.35400
C2760       C  0.45999365  0.85232861  0.51497496    -0.22100
C2761       C  0.45655048  0.85386880  0.49428513    -0.22100
C2762       C  0.46545733  0.64318077  0.50772496    -0.22100
C2763       C  0.46466612  0.64446515  0.48702071    -0.22100
C2764       C  0.51636489  0.76395813  0.55976121    -0.23100
C2765       C  0.51497572  0.72744579  0.55879150    -0.23100
C2766       C  0.49923803  0.77402363  0.43987597    -0.23100
C2767       C  0.50039114  0.73773825  0.43863107    -0.23100
C2768       C  0.49137976  0.81150245  0.53830450    -0.18500
C2769       C  0.47798535  0.81615101  0.46597552    -0.18500
C2770       C  0.48509035  0.68907822  0.46212968    -0.18500
C2771       C  0.48885270  0.68400832  0.53436207    -0.18500
H2772       H  0.45013714  0.87164138  0.52569973     0.14400
H2773       H  0.44343711  0.87450188  0.48589140     0.14400
H2774       H  0.45669964  0.62100913  0.51684744     0.14400
H2775       H  0.45512265  0.62356128  0.47700237     0.14400
H2776       H  0.52585355  0.77977819  0.57241121     0.12700
H2777       H  0.52338081  0.70947598  0.57046197     0.12700
H2778       H  0.50470704  0.79222482  0.42769973     0.12700
H2779       H  0.50718154  0.72242315  0.42535650     0.12700
H2780       H  0.50463342  0.78386446  0.50018658     0.26000
H2781       H  0.50399968  0.71896616  0.49868354     0.26000
N2782       N  0.69532936  0.49855859  0.50101604    -0.36800
N2783       N  0.75186845  0.50540230  0.53045556    -0.57300
N2784       N  0.80595451  0.49638643  0.49951634    -0.36800
N2785       N  0.74905268  0.48661959  0.46999808    -0.57300
C2786       C  0.67521132  0.49724957  0.51788763     0.26800
C2787       C  0.67380147  0.48987165  0.48536604     0.26800
C2788       C  0.82599237  0.49187026  0.51619606     0.26800
C2789       C  0.82452722  0.48308236  0.48382326     0.26800
C2790       C  0.72369973  0.51264678  0.54245156     0.35400
C2791       C  0.78161925  0.51342950  0.54118537     0.35400
C2792       C  0.72000897  0.49211244  0.45838617     0.35400
C2793       C  0.77769583  0.49010054  0.45776763     0.35400
C2794       C  0.64000774  0.48903240  0.51273974    -0.22100
C2795       C  0.63917303  0.48411855  0.49220436    -0.22100
C2796       C  0.85800236  0.47595288  0.51101450    -0.22100
C2797       C  0.85725915  0.47082827  0.49045769    -0.22100
C2798       C  0.73574918  0.52549990  0.56092650    -0.23100
C2799       C  0.77233131  0.52645590  0.56001455    -0.23100
C2800       C  0.73484647  0.96328047  0.43992075    -0.23100
C2801       C  0.77142184  0.96294921  0.43970327    -0.23100
C2802       C  0.68751494  0.50458074  0.53765697    -0.18500
C2803       C  0.68419619  0.48945548  0.46497304    -0.18500
C2804       C  0.81338865  0.48408963  0.46358574    -0.18500
C2805       C  0.81654854  0.50316445  0.53574904    -0.18500
H2806       H  0.61721814  0.48691760  0.52272459     0.14400
H2807       H  0.61568909  0.47746852  0.48330045     0.14400
H2808       H  0.87984456  0.46930188  0.52095391     0.14400
H2809       H  0.87835242  0.45942658  0.48143057     0.14400
H2810       H  0.72015337  0.53252665  0.57401547     0.12700
H2811       H  0.79010514  0.53401868  0.57224999     0.12700
H2812       H  0.71764860  0.95808876  0.42708347     0.12700
H2813       H  0.78783173  0.95792550  0.42660074     0.12700
H2814       H  0.72136056  0.50812880  0.49987036     0.26000
H2815       H  0.78273881  0.51117728  0.49854945     0.26000
C2816       C  0.50398331  0.74695879  0.25100995    -0.02700
C2817       C  0.53101198  0.80507653  0.26678079    -0.05900
C2818       C  0.00437491  0.78174777  0.26510685     0.00000
C2819       C  0.97415083  0.79128586  0.27773973    -0.08600
C2820       C  0.97529705  0.82403038  0.28832454    -0.06000
C2821       C  0.00391307  0.84820991  0.28700404     0.00000
C2822       C  0.53147097  0.83696332  0.27784877    -0.08500
C2823       C  0.56497466  0.86064688  0.27713677     0.61900
H2824       H  0.55493638  0.79972868  0.25858648     0.12600
H2825       H  0.95290268  0.83157921  0.29766795     0.12600
C2826       C  0.93819830  0.77112209  0.27923733     0.62100
F2827       F  0.58908732  0.84964875  0.26263857    -0.23100
F2828       F  0.58237851  0.85999248  0.29550602    -0.20400
F2829       F  0.55575260  0.89513842  0.27255619    -0.20100
F2830       F  0.94129660  0.73487765  0.27943514    -0.20100
F2831       F  0.91649084  0.78060303  0.26338629    -0.20400
F2832       F  0.92040133  0.77964663  0.29687433    -0.23100
C2833       C  0.50827676  0.64546161  0.26664515    -0.05900
C2834       C  0.00139032  0.65069722  0.29048056     0.00000
C2835       C  0.00210500  0.68489113  0.29912659    -0.08600
C2836       C  0.00664507  0.71435103  0.28648571    -0.06000
C2837       C  0.00840885  0.71145430  0.26513056     0.00000
C2838       C  0.51034334  0.67592257  0.25435542    -0.08500
C2839       C  0.52029848  0.66862395  0.23232523     0.61900
H2840       H  0.51257613  0.61927492  0.26027844     0.12600
H2841       H  0.00786079  0.74000988  0.29367649     0.12600
C2842       C  0.99804084  0.69016746  0.32171586     0.62100
F2843       F  0.51167473  0.63400831  0.22670285    -0.23100
F2844       F  0.55678726  0.67307168  0.22985584    -0.20400
F2845       F  0.50267304  0.68989887  0.21896785    -0.20100
F2846       F  0.02683286  0.67545511  0.33155319    -0.20100
F2847       F  0.96677380  0.67380239  0.32819780    -0.20400
F2848       F  0.99652753  0.72576904  0.32706648    -0.23100
C2849       C  0.51669549  0.63013945  0.41996047    -0.05900
C2850       C  0.98811900  0.61953008  0.41274955     0.00000
C2851       C  0.96054248  0.64377065  0.41764353    -0.08600
C2852       C  0.96211930  0.66143335  0.43631953    -0.06000
C2853       C  0.48534153  0.66305808  0.44552892     0.00000
C2854       C  0.51769650  0.64966931  0.43796305    -0.08500
C2855       C  0.55299205  0.65524784  0.44907030     0.61900
H2856       H  0.54146525  0.62005541  0.41394450     0.12600
H2857       H  0.94176611  0.68040656  0.44038993     0.12600
C2858       C  0.93155691  0.65387405  0.40273414     0.62100
F2859       F  0.58179371  0.64613284  0.43717597    -0.23100
F2860       F  0.55297357  0.63444322  0.46612689    -0.20400
F2861       F  0.55812793  0.69037339  0.45467467    -0.20100
F2862       F  0.90891507  0.62537036  0.39905679    -0.20100
F2863       F  0.94706772  0.66458838  0.38486477    -0.20400
F2864       F  0.91089371  0.68155119  0.40983126    -0.23100
C2865       C  0.50501520  0.86686579  0.44828234    -0.05900
C2866       C  0.47522865  0.84434541  0.45064234     0.00000
C2867       C  0.95677829  0.83882662  0.43486380    -0.08600
C2868       C  0.95930345  0.85956057  0.41735367    -0.06000
C2869       C  0.99001109  0.88025550  0.41312488     0.00000
C2870       C  0.51015258  0.88657890  0.43063490    -0.08500
C2871       C  0.54310357  0.91008200  0.42879521     0.61900
H2872       H  0.52554079  0.86689372  0.45982285     0.12600
H2873       H  0.93775687  0.85859374  0.40644220     0.12600
C2874       C  0.92325059  0.81680681  0.43892934     0.62100
F2875       F  0.56088088  0.91395943  0.44698536    -0.23100
F2876       F  0.53362166  0.94362105  0.42249226    -0.20400
F2877       F  0.56614392  0.89486371  0.41507816    -0.20100
F2878       F  0.91001784  0.82529896  0.45775659    -0.20100
F2879       F  0.93099124  0.78101939  0.43826058    -0.20400
F2880       F  0.89667449  0.82310750  0.42492366    -0.23100
C2881       C  0.62583334  0.95978547  0.42234908    -0.05900
C2882       C  0.62127855  0.99394355  0.41419384     0.00000
C2883       C  0.61832696  0.52622984  0.42814256    -0.08600
C2884       C  0.64033860  0.52199933  0.44506502    -0.06000
C2885       C  0.66236637  0.98355949  0.44938169     0.00000
C2886       C  0.64546126  0.95411395  0.44001473    -0.08500
C2887       C  0.64852230  0.91694958  0.44867953     0.61900
H2888       H  0.61459333  0.93708282  0.41451131     0.12600
H2889       H  0.64688649  0.54448797  0.45474244     0.12600
C2890       C  0.60138124  0.56198456  0.42489097     0.62100
F2891       F  0.62973462  0.89186728  0.43739906    -0.23100
F2892       F  0.63496742  0.91673894  0.46803298    -0.20400
F2893       F  0.69835305  0.42173149  0.43837846    -0.20100
F2894       F  0.59830970  0.07083217  0.41622876    -0.20100
F2895       F  0.61688778  0.57853964  0.40850662    -0.20400
F2896       F  0.60612636  0.58391270  0.44151172    -0.23100
C2897       C  0.88060443  0.96793343  0.42008993    -0.05900
C2898       C  0.87207771  0.99698368  0.40787159     0.00000
C2899       C  0.87548873  0.51872205  0.42404838    -0.08600
C2900       C  0.85672959  0.51483898  0.44216077    -0.06000
C2901       C  0.84235471  0.99011682  0.44645285     0.00000
C2902       C  0.86590415  0.96390506  0.43933606    -0.08500
C2903       C  0.87492316  0.93171597  0.45188117     0.61900
H2904       H  0.89859036  0.94796909  0.41433689     0.12600
H2905       H  0.85214853  0.53766842  0.45181250     0.12600
C2906       C  0.88979144  0.55536016  0.41885515     0.62100
F2907       F  0.83923609  0.38956236  0.42829435    -0.23100
F2908       F  0.79235070  0.41828927  0.44123526    -0.20400
F2909       F  0.89059461  0.94280756  0.46975058    -0.20100
F2910       F  0.87113139  0.56789574  0.40245891    -0.20100
F2911       F  0.86556807  0.07692786  0.39836900    -0.20400
F2912       F  0.81151084  0.07498365  0.41237977    -0.23100
C2913       C  0.62802607  0.47209777  0.58046498    -0.05900
C2914       C  0.61980587  0.50440478  0.59009576     0.00000
C2915       C  0.63405717  0.53679105  0.58205598    -0.08600
C2916       C  0.65198804  0.53556190  0.56351069    -0.06000
C2917       C  0.66142845  0.50331837  0.55455154     0.00000
C2918       C  0.65034796  0.47089259  0.56342030    -0.08500
C2919       C  0.66346948  0.43530505  0.55554764     0.61900
H2920       H  0.61801387  0.44752735  0.58684993     0.12600
H2921       H  0.68411168  0.03807171  0.55929410     0.12600
C2922       C  0.63431597  0.57205178  0.59358747     0.62100
F2923       F  0.68548838  0.90788564  0.55542126    -0.23100
F2924       F  0.63925529  0.91763838  0.53446887    -0.20400
F2925       F  0.65318330  0.40759480  0.56792444    -0.20100
F2926       F  0.66584410  0.04743093  0.61460252    -0.20100
F2927       F  0.60015312  0.58509913  0.59558426    -0.20400
F2928       F  0.65472079  0.59786393  0.58402125    -0.23100
C2929       C  0.88507989  0.52205499  0.57659931    -0.05900
C2930       C  0.87575523  0.49521365  0.59031297     0.00000
C2931       C  0.88957066  0.97457934  0.57424852    -0.08600
C2932       C  0.87050379  0.97566787  0.55607700    -0.06000
C2933       C  0.84209320  0.49852458  0.55255352     0.00000
C2934       C  0.86759301  0.52497120  0.55799490    -0.08500
C2935       C  0.87455872  0.55709756  0.54482324     0.61900
H2936       H  0.90506622  0.54179872  0.58096874     0.12600
H2937       H  0.87118127  0.95334668  0.54568281     0.12600
C2938       C  0.91400086  0.94350512  0.57800854     0.62100
F2939       F  0.90060003  0.57958760  0.55292767    -0.23100
F2940       F  0.84338794  0.57615287  0.54280795    -0.18800
F2941       F  0.88596623  0.54626003  0.52601722    -0.20100
F2942       F  0.89894321  0.92175978  0.59240539    -0.20100
F2943       F  0.94722375  0.95582653  0.58440799    -0.20400
F2944       F  0.91911357  0.92322813  0.56078726    -0.23100
C2945       C  0.97269024  0.63463510  0.58398307    -0.05900
C2946       C  0.00304880  0.61388646  0.58741824     0.00000
C2947       C  0.51107191  0.60659094  0.56752673    -0.08600
C2948       C  0.51002516  0.62975070  0.55109207    -0.06000
C2949       C  0.48462001  0.65660639  0.54998724     0.00000
C2950       C  0.97074039  0.65817358  0.56782287    -0.08500
C2951       C  0.93787542  0.68107324  0.56541472     0.61900
H2952       H  0.95078744  0.63350528  0.59461340     0.12600
H2953       H  0.52909268  0.62676681  0.53891873     0.12600
C2954       C  0.53449619  0.57423953  0.56508609     0.62100
F2955       F  0.91040254  0.67048289  0.57810195    -0.23100
F2956       F  0.92519391  0.67877338  0.54589306    -0.20400
F2957       F  0.94663181  0.71605387  0.56990705    -0.20100
F2958       F  0.53446002  0.55234784  0.58162354    -0.20100
F2959       F  0.56925214  0.58506837  0.56103339    -0.20400
F2960       F  0.52210009  0.55433673  0.54885461    -0.23100
C2961       C  0.51247965  0.88475279  0.57679119    -0.05900
C2962       C  0.99017365  0.87654935  0.59138224     0.00000
C2963       C  0.96531036  0.84850765  0.58736905    -0.08600
C2964       C  0.96651006  0.83134787  0.56855666    -0.06000
C2965       C  0.48935819  0.83645836  0.55580858     0.00000
C2966       C  0.51352391  0.86549538  0.55855042    -0.08500
C2967       C  0.54084949  0.87569548  0.54261976     0.61900
H2968       H  0.53073683  0.90700823  0.57924512     0.12600
H2969       H  0.94862593  0.80907997  0.56534998     0.12600
C2970       C  0.93960648  0.83459251  0.60330635     0.62100
F2971       F  0.56396839  0.90224764  0.54938773    -0.23100
F2972       F  0.52372329  0.88827159  0.52576353    -0.20400
F2973       F  0.56099496  0.84652392  0.53734192    -0.20100
F2974       F  0.91465878  0.85998460  0.60807189    -0.20100
F2975       F  0.95849430  0.82585603  0.62044031    -0.20400
F2976       F  0.92105658  0.80448609  0.59681891    -0.23100
C2977       C  0.53974575  0.75417879  0.21742953    -0.05900
C2978       C  0.54056194  0.74736457  0.23846863     0.00000
C2979       C  0.57589478  0.74091068  0.24694797    -0.08600
C2980       C  0.60621474  0.74187313  0.23419654    -0.06000
C2981       C  0.60428000  0.75127655  0.21402494     0.00000
C2982       C  0.57064216  0.75824700  0.20550072    -0.08500
C2983       C  0.56723586  0.76926919  0.18363555     0.61900
H2984       H  0.51462122  0.75649276  0.20979440     0.12600
H2985       H  0.63237822  0.73517356  0.23999130     0.12600
C2986       C  0.58395665  0.73049479  0.26872723     0.62100
F2987       F  0.53222853  0.77676529  0.17845681    -0.23100
F2988       F  0.57900799  0.74221591  0.17121761    -0.20400
F2989       F  0.58764778  0.79958824  0.18028008    -0.20100
F2990       F  0.57976820  0.69418194  0.27086127    -0.20100
F2991       F  0.56299133  0.74772338  0.28256109    -0.20400
F2992       F  0.61896093  0.73920428  0.27391377    -0.23100
C2993       C  0.92817800  0.77335409  0.21475006    -0.05900
C2994       C  0.90476256  0.74408459  0.21581797     0.00000
C2995       C  0.91357494  0.71596713  0.22877765    -0.08600
C2996       C  0.94600140  0.71800038  0.23957654    -0.06000
C2997       C  0.97120472  0.74678559  0.23837410     0.00000
C2998       C  0.96070798  0.77600929  0.22560651    -0.08500
C2999       C  0.97945047  0.81246280  0.22433627     0.61900
H3000       H  0.92010360  0.79526175  0.20542754     0.12600
H3001       H  0.95065425  0.69652402  0.24962753     0.12600
C3002       C  0.88832578  0.68435619  0.23213719     0.62100
F3003       F  0.96829379  0.83361122  0.24015215    -0.23100
F3004       F  0.97078570  0.82969303  0.20668680    -0.20400
F3005       F  0.01609301  0.81075382  0.22438094    -0.20100
F3006       F  0.88548922  0.66413737  0.21474189    -0.20100
F3007       F  0.85488588  0.69633203  0.23767890    -0.20400
F3008       F  0.90017396  0.66218650  0.24721947    -0.23100
C3009       C  0.78429311  0.60489293  0.08597960    -0.05900
C3010       C  0.75453268  0.62660019  0.08936292     0.00000
C3011       C  0.72813732  0.62954762  0.07408906    -0.08600
C3012       C  0.73128571  0.60852396  0.05662282    -0.06000
C3013       C  0.76008072  0.58563207  0.05387177     0.00000
C3014       C  0.78790304  0.58474470  0.06831114    -0.08500
C3015       C  0.82132156  0.56242734  0.06610781     0.61900
H3016       H  0.80495800  0.60322197  0.09739398     0.12600
H3017       H  0.71050256  0.60868422  0.04523634     0.12600
C3018       C  0.69686248  0.65460839  0.07593227     0.62100
F3019       F  0.85125410  0.58352045  0.06969892    -0.23100
F3020       F  0.82513708  0.54754196  0.04716306    -0.20400
F3021       F  0.82038642  0.53544980  0.08010154    -0.20100
F3022       F  0.70915072  0.68846918  0.08080642    -0.20100
F3023       F  0.67355257  0.64258071  0.09060746    -0.20400
F3024       F  0.67801995  0.65677647  0.05806189    -0.23100
C3025       C  0.77859472  0.91737789  0.06849973    -0.05900
C3026       C  0.75197171  0.90886511  0.05422709     0.00000
C3027       C  0.72811359  0.87994682  0.05776935    -0.08600
C3028       C  0.73253071  0.86001711  0.07542475    -0.06000
C3029       C  0.75859274  0.86919055  0.08990316     0.00000
C3030       C  0.78152038  0.89884714  0.08666018    -0.08500
C3031       C  0.80725686  0.91243137  0.10279047     0.61900
H3032       H  0.79607478  0.94001029  0.06565375     0.12600
H3033       H  0.71527696  0.83723345  0.07820267     0.12600
C3034       C  0.69739906  0.87089689  0.04349341     0.62100
F3035       F  0.82194197  0.94525256  0.09796438    -0.23100
F3036       F  0.83492797  0.88880823  0.10505814    -0.20400
F3037       F  0.78936852  0.91622052  0.12089961    -0.20100
F3038       F  0.71055995  0.85704064  0.02573060    -0.20100
F3039       F  0.67805037  0.90104879  0.03937819    -0.20400
F3040       F  0.67404735  0.84597423  0.05162424    -0.23100
C3041       C  0.78756731  0.60386928  0.94121784    -0.05900
C3042       C  0.75508948  0.59063017  0.94881047     0.00000
C3043       C  0.72254154  0.60086274  0.93987284    -0.08600
C3044       C  0.72380313  0.62021790  0.92199124    -0.06000
C3045       C  0.75629534  0.63218556  0.91356822     0.00000
C3046       C  0.78882792  0.62578161  0.92413781    -0.08500
C3047       C  0.82462169  0.64209425  0.91802232     0.61900
H3048       H  0.81209387  0.59616914  0.94861485     0.12600
H3049       H  0.69873804  0.62586990  0.91452558     0.12600
C3050       C  0.68594758  0.59068097  0.94806463     0.62100
F3051       F  0.85112066  0.63575417  0.93209535    -0.23100
F3052       F  0.82138580  0.67853073  0.91645487    -0.20400
F3053       F  0.83569601  0.62790832  0.89985924    -0.20100
F3054       F  0.68723735  0.57892485  0.96769058    -0.20100
F3055       F  0.67082215  0.56429554  0.93605982    -0.20400
F3056       F  0.66408756  0.61997938  0.94776507    -0.23100
C3057       C  0.72763951  0.88666131  0.94403056    -0.05900
C3058       C  0.75946996  0.90508717  0.94845947     0.00000
C3059       C  0.78891301  0.90273695  0.93522092    -0.08600
C3060       C  0.78448324  0.88367418  0.91708229    -0.06000
C3061       C  0.75157623  0.86737012  0.91173025     0.00000
C3062       C  0.72282030  0.86800001  0.92580046    -0.08500
C3063       C  0.68676383  0.85020148  0.92176155     0.61900
H3064       H  0.70554868  0.88934520  0.95445556     0.12600
H3065       H  0.80650038  0.88272376  0.90653442     0.12600
C3066       C  0.82439345  0.92119362  0.94002260     0.62100
F3067       F  0.66459660  0.85148727  0.93842296    -0.23100
F3068       F  0.69148864  0.81480097  0.91689245    -0.20400
F3069       F  0.66963357  0.86729598  0.90620459    -0.20100
F3070       F  0.85045397  0.91311179  0.92597683    -0.20100
F3071       F  0.83640395  0.91053738  0.95867798    -0.20400
F3072       F  0.82026068  0.95762881  0.94024633    -0.23100
C3073       C  0.52047586  0.71756245  0.72177078    -0.05900
C3074       C  0.99624137  0.71543082  0.73839001     0.00000
C3075       C  0.97321238  0.68385429  0.73962926    -0.08600
C3076       C  0.97424906  0.65834204  0.72400810    -0.06000
C3077       C  0.00215981  0.65646986  0.71023001     0.00000
C3078       C  0.52287920  0.68886887  0.70814126    -0.08500
C3079       C  0.55268626  0.68884298  0.69258713     0.61900
H3080       H  0.54083769  0.73779124  0.72101862     0.12600
H3081       H  0.95454187  0.63686087  0.72382381     0.12600
C3082       C  0.95062315  0.67070485  0.75740421     0.62100
F3083       F  0.57264939  0.72016328  0.69298938    -0.23100
F3084       F  0.53821638  0.68498754  0.67350839    -0.20400
F3085       F  0.57576333  0.66127611  0.69630066    -0.20100
F3086       F  0.91511242  0.67903728  0.75456687    -0.20100
F3087       F  0.96250918  0.68297353  0.77564330    -0.20400
F3088       F  0.95229352  0.63400466  0.75894313    -0.23100
C3089       C  0.98944430  0.85192997  0.73471712    -0.05900
C3090       C  0.99064803  0.84828933  0.71398450     0.00000
C3091       C  0.48582783  0.82005992  0.70456014    -0.08600
C3092       C  0.48586761  0.79022365  0.71725439    -0.06000
C3093       C  0.99072808  0.78665135  0.73938058     0.00000
C3094       C  0.98822414  0.82247874  0.74778060    -0.08500
C3095       C  0.98322380  0.83198293  0.76998445     0.61900
H3096       H  0.98945275  0.87887786  0.74055094     0.12600
H3097       H  0.47765935  0.76524450  0.71060854     0.12600
C3098       C  0.47754852  0.81578338  0.68225995     0.62100
F3099       F  0.98297369  0.86833252  0.77349656    -0.23100
F3100       F  0.01078343  0.81929165  0.78125473    -0.20400
F3101       F  0.95072767  0.81927984  0.77680732    -0.20100
F3102       F  0.50674322  0.82710644  0.67110652    -0.20100
F3103       F  0.44820841  0.83589880  0.67725995    -0.20400
F3104       F  0.46994719  0.78079906  0.67699300    -0.23100
C3105       C  0.54040438  0.71939722  0.77154389    -0.05900
C3106       C  0.53544683  0.75113780  0.76050639     0.00000
C3107       C  0.56740527  0.77321208  0.75843562    -0.08600
C3108       C  0.59456195  0.77007350  0.77301083    -0.06000
C3109       C  0.59670706  0.74101891  0.78587107     0.00000
C3110       C  0.57056229  0.71354220  0.78391724    -0.08500
C3111       C  0.57311221  0.67902474  0.79546762     0.61900
H3112       H  0.51939218  0.69954602  0.77122860     0.12600
H3113       H  0.61634719  0.78949508  0.77324461     0.12600
C3114       C  0.57870242  0.79814279  0.74133802     0.62100
F3115       F  0.54468548  0.65608897  0.79129343    -0.23100
F3116       F  0.57310009  0.68608560  0.81592372    -0.20400
F3117       F  0.60422105  0.66176936  0.79020660    -0.20100
F3118       F  0.57867659  0.83299821  0.74808580    -0.20100
F3119       F  0.55898929  0.79546054  0.72398885    -0.20400
F3120       F  0.61340695  0.79024215  0.73565533    -0.23100
C3121       C  0.92181904  0.75004522  0.79571916    -0.05900
C3122       C  0.89116915  0.75095797  0.78377311     0.00000
C3123       C  0.89437761  0.75197314  0.76284262    -0.08600
C3124       C  0.92877044  0.75142959  0.75437813    -0.06000
C3125       C  0.96112169  0.75027278  0.76587267     0.00000
C3126       C  0.95706622  0.75013561  0.78778342    -0.08500
C3127       C  0.98626163  0.74618109  0.80395565     0.61900
H3128       H  0.91735150  0.74831535  0.81177904     0.12600
H3129       H  0.93054356  0.75107058  0.73814400     0.12600
C3130       C  0.86129968  0.75283339  0.74953479     0.62100
F3131       F  0.97399484  0.75592328  0.82285632    -0.23100
F3132       F  0.01583821  0.76730784  0.80087922    -0.20400
F3133       F  0.99627333  0.71114582  0.80531162    -0.20100
F3134       F  0.84284836  0.78379910  0.75325945    -0.20100
F3135       F  0.83920070  0.72397463  0.75366716    -0.20400
F3136       F  0.86983879  0.75161075  0.72927827    -0.23100
C3137       C  0.84800799  0.50498366  0.73400292    -0.05900
C3138       C  0.84560275  0.50825405  0.71321220     0.00000
C3139       C  0.81197781  0.51546696  0.70456717    -0.08600
C3140       C  0.78104493  0.51401479  0.71682233    -0.06000
C3141       C  0.78212583  0.50475559  0.73749633     0.00000
C3142       C  0.81749703  0.50578608  0.74662678    -0.08500
C3143       C  0.82805967  0.01054681  0.77051473     0.61900
H3144       H  0.87461281  0.50268325  0.74030583     0.12600
H3145       H  0.75563949  0.51958834  0.70991290     0.12600
C3146       C  0.80885699  0.52423202  0.68239085     0.62100
F3147       F  0.86393042  0.00672054  0.77524746    -0.23100
F3148       F  0.80964527  0.98593849  0.78167850    -0.20400
F3149       F  0.81585359  0.54371647  0.77546154    -0.20100
F3150       F  0.82508567  0.99461865  0.67234482    -0.20100
F3151       F  0.82881981  0.55455494  0.67830517    -0.20400
F3152       F  0.77379889  0.53033781  0.67674981    -0.23100
C3153       C  0.66711750  0.47939207  0.70854787    -0.05900
C3154       C  0.64284219  0.50603861  0.71318344     0.00000
C3155       C  0.65573955  0.02556877  0.72933599    -0.08600
C3156       C  0.68708196  0.02115785  0.74071051    -0.06000
C3157       C  0.71014347  0.49922622  0.73510370     0.00000
C3158       C  0.70010334  0.47474251  0.71878782    -0.08500
C3159       C  0.72160863  0.44279645  0.71128682     0.61900
H3160       H  0.65962804  0.46197779  0.69618240     0.12600
H3161       H  0.68859701  0.03705741  0.75415454     0.12600
C3162       C  0.62928432  0.05430126  0.73516218     0.62100
F3163       F  0.75274592  0.45381297  0.70217905    -0.23100
F3164       F  0.73499680  0.91716694  0.72760877    -0.20400
F3165       F  0.72850865  0.41948949  0.72653219    -0.20100
F3166       F  0.59500048  0.04006180  0.73639811    -0.20100
F3167       F  0.62286102  0.58302779  0.71925726    -0.20400
F3168       F  0.63737352  0.06987262  0.75359643    -0.23100
C3169       C  0.74976268  0.56412014  0.75576127    -0.05900
C3170       C  0.74463986  0.53009646  0.76507432     0.00000
C3171       C  0.73844894  0.53140170  0.78680565    -0.08600
C3172       C  0.73850091  0.56507011  0.79673930    -0.06000
C3173       C  0.74460493  0.59713344  0.78695917     0.00000
C3174       C  0.75074451  0.59682958  0.76619392    -0.08500
C3175       C  0.75873861  0.63120485  0.75512496     0.61900
H3176       H  0.75271830  0.56515095  0.73962967     0.12600
H3177       H  0.73309131  0.56721371  0.81269251     0.12600
C3178       C  0.72822772  0.50049949  0.80056383     0.62100
F3179       F  0.75951924  0.62623954  0.73447178    -0.23100
F3180       F  0.79178130  0.64448827  0.76121413    -0.20400
F3181       F  0.73282491  0.65604430  0.75942283    -0.20100
F3182       F  0.75115022  0.47249734  0.79866646    -0.20100
F3183       F  0.69323175  0.49025366  0.79683946    -0.20400
F3184       F  0.72969049  0.50981896  0.82076784    -0.23100
C3185       C  0.71478004  0.94454394  0.76692934    -0.05900
C3186       C  0.74872285  0.95710879  0.75998191     0.00000
C3187       C  0.77706680  0.93111607  0.76141856    -0.08600
C3188       C  0.77336670  0.90376151  0.77560233    -0.06000
C3189       C  0.74029298  0.89344113  0.78366297     0.00000
C3190       C  0.70971583  0.91268427  0.77778935    -0.08500
C3191       C  0.67188222  0.90040672  0.78287375     0.61900
H3192       H  0.69146660  0.96029315  0.76405188     0.12600
H3193       H  0.79646183  0.88751879  0.77869418     0.12600
C3194       C  0.80903415  0.92473153  0.74744660     0.62100
F3195       F  0.64626812  0.92158911  0.77410935    -0.23100
F3196       F  0.66678608  0.90158128  0.80346145    -0.20400
F3197       F  0.66626612  0.86608987  0.77578357    -0.20100
F3198       F  0.84058111  0.93452883  0.75701522    -0.20100
F3199       F  0.80692888  0.94096089  0.72917442    -0.20400
F3200       F  0.81103520  0.88877002  0.74287664    -0.23100
C3201       C  0.59920156  0.78777150  0.06354879    -0.05900
C3202       C  0.59171657  0.75544457  0.05376002     0.00000
C3203       C  0.60340275  0.72333649  0.06223615    -0.08600
C3204       C  0.62300274  0.72479661  0.08027387    -0.06000
C3205       C  0.62973668  0.75698259  0.09063032     0.00000
C3206       C  0.61683259  0.78926361  0.08228016    -0.08500
C3207       C  0.61896484  0.82487274  0.09332312     0.61900
H3208       H  0.58864706  0.81168924  0.05696515     0.12600
H3209       H  0.63237659  0.70034107  0.08670703     0.12600
C3210       C  0.59463252  0.68764528  0.05239086     0.62100
F3211       F  0.60132340  0.85133666  0.08307017    -0.23100
F3212       F  0.65421538  0.83579749  0.09552543    -0.20400
F3213       F  0.60305173  0.82183997  0.11202876    -0.20100
F3214       F  0.61055443  0.68603649  0.03365399    -0.20100
F3215       F  0.55804588  0.68315340  0.05020557    -0.20400
F3216       F  0.60673908  0.65956215  0.06371100    -0.23100
C3217       C  0.89287440  0.76430139  0.05585676    -0.05900
C3218       C  0.90574810  0.73097415  0.05012840     0.00000
C3219       C  0.89786838  0.70100273  0.06203992    -0.08600
C3220       C  0.88015961  0.70610749  0.08048765    -0.06000
C3221       C  0.86997528  0.74010400  0.08729731     0.00000
C3222       C  0.87468696  0.76955346  0.07415472    -0.08500
C3223       C  0.86109956  0.80645264  0.07908858     0.61900
H3224       H  0.89918506  0.78672451  0.04630924     0.12600
H3225       H  0.87534256  0.68343327  0.09006951     0.12600
C3226       C  0.90892409  0.66403836  0.05543817     0.62100
F3227       F  0.86535336  0.82951696  0.06310829    -0.23100
F3228       F  0.87982264  0.82067034  0.09528563    -0.20400
F3229       F  0.82494517  0.80454562  0.08347206    -0.20100
F3230       F  0.94577601  0.66200624  0.05432540    -0.20100
F3231       F  0.89443114  0.65635305  0.03671728    -0.20400
F3232       F  0.89707444  0.63838930  0.06873387    -0.23100
C3233       C  0.59068740  0.73457019  0.94320382    -0.05900
C3234       C  0.57860262  0.76900434  0.94721578     0.00000
C3235       C  0.58732603  0.79675344  0.93381747    -0.08600
C3236       C  0.60773649  0.78890487  0.91667789    -0.06000
C3237       C  0.62002108  0.75440133  0.91234305     0.00000
C3238       C  0.61129126  0.72656986  0.92597087    -0.08500
C3239       C  0.62353364  0.68872362  0.92274590     0.61900
H3240       H  0.58360047  0.71391573  0.95378979     0.12600
H3241       H  0.61382992  0.81015801  0.90631962     0.12600
C3242       C  0.57492074  0.83460908  0.93742299     0.62100
F3243       F  0.61275991  0.66676950  0.93828530    -0.23100
F3244       F  0.66050480  0.68806658  0.92176412    -0.20400
F3245       F  0.60895057  0.67508786  0.90513083    -0.20100
F3246       F  0.58180408  0.84503319  0.95708102    -0.20100
F3247       F  0.53857918  0.83647102  0.93369194    -0.20400
F3248       F  0.59223159  0.85857170  0.92493943    -0.23100
C3249       C  0.89426066  0.78087161  0.93937580    -0.05900
C3250       C  0.91403833  0.75084412  0.94418788     0.00000
C3251       C  0.91308709  0.72087784  0.93128141    -0.08600
C3252       C  0.89362594  0.72280841  0.91315719    -0.06000
C3253       C  0.87433790  0.75332315  0.90792211     0.00000
C3254       C  0.87366954  0.78250396  0.92169854    -0.08500
C3255       C  0.85069483  0.81487987  0.91842360     0.61900
H3256       H  0.89521697  0.80323159  0.94974803     0.12600
H3257       H  0.89338794  0.70029258  0.90290897     0.12600
C3258       C  0.93241473  0.68712196  0.93678894     0.62100
F3259       F  0.85029831  0.83691632  0.93520431    -0.23100
F3260       F  0.81572688  0.80423089  0.91459876    -0.20400
F3261       F  0.86391815  0.83442604  0.90248063    -0.20100
F3262       F  0.92885497  0.66118740  0.92199342    -0.20100
F3263       F  0.91831971  0.67372907  0.95444951    -0.20400
F3264       F  0.96851770  0.69432169  0.93950542    -0.23100
C3265       C  0.81594808  0.49650882  0.29815336    -0.05900
C3266       C  0.85438515  0.99693458  0.28438526     0.00000
C3267       C  0.85143984  0.99561554  0.26347409    -0.08600
C3268       C  0.81727559  0.99744685  0.25489619    -0.06000
C3269       C  0.78471537  0.99807138  0.26622874     0.00000
C3270       C  0.78141460  0.49707298  0.28917749    -0.08500
C3271       C  0.75074228  0.49878879  0.30458789     0.61900
H3272       H  0.81886713  0.49694874  0.31437406     0.12600
H3273       H  0.81599344  0.99918968  0.23871635     0.12600
C3274       C  0.88457027  0.99304910  0.25032736     0.62100
F3275       F  0.76075951  0.48386612  0.32270396    -0.23100
F3276       F  0.72993305  0.97625597  0.29900478    -0.20400
F3277       F  0.74221459  0.53374459  0.30849267    -0.20100
F3278       F  0.90247502  0.96212463  0.25471398    -0.20100
F3279       F  0.89967048  0.52867467  0.25817746    -0.20400
F3280       F  0.87618363  0.99248905  0.23002807    -0.23100
C3281       C  0.69935274  0.53199019  0.27287890    -0.05900
C3282       C  0.71177900  0.99860871  0.26246168     0.00000
C3283       C  0.68196632  0.97388940  0.25938940    -0.08600
C3284       C  0.65429348  0.97261286  0.27396625    -0.06000
C3285       C  0.64921933  0.99984883  0.28805766     0.00000
C3286       C  0.66842826  0.53563540  0.28470605    -0.08500
C3287       C  0.66171150  0.57121160  0.29500635     0.61900
H3288       H  0.71770148  0.55410359  0.27238567     0.12600
H3289       H  0.63396773  0.95175810  0.27295233     0.12600
C3290       C  0.67285782  0.95144164  0.24068961     0.62100
F3291       F  0.68741506  0.59662978  0.29014327    -0.23100
F3292       F  0.66617536  0.05128576  0.32117954    -0.20400
F3293       F  0.62895532  0.58413781  0.28896749    -0.20100
F3294       F  0.67605898  0.91576809  0.24501700    -0.20100
F3295       F  0.68745495  0.45774614  0.22516048    -0.20400
F3296       F  0.63758731  0.95738609  0.23530802    -0.23100
C3297       C  0.72232704  0.53903322  0.22391336    -0.05900
C3298       C  0.74798522  0.53603276  0.23962959     0.00000
C3299       C  0.77051501  0.56757262  0.24292001    -0.08600
C3300       C  0.77192575  0.59388148  0.22792599    -0.06000
C3301       C  0.74693366  0.59565717  0.21244228     0.00000
C3302       C  0.72137603  0.56777153  0.21035709    -0.08500
C3303       C  0.69432925  0.56716570  0.19325289     0.61900
H3304       H  0.70290922  0.51790328  0.22203725     0.12600
H3305       H  0.79101485  0.61578267  0.22942663     0.12600
C3306       C  0.79017987  0.57971638  0.26213628     0.62100
F3307       F  0.67552316  0.53522747  0.19215370    -0.23100
F3308       F  0.71181880  0.57189711  0.17510357    -0.20400
F3309       F  0.66982349  0.59393280  0.19602692    -0.20100
F3310       F  0.82631659  0.57307526  0.26042646    -0.20100
F3311       F  0.77705886  0.56517436  0.27943369    -0.20400
F3312       F  0.78646678  0.61605658  0.26496094    -0.23100
C3313       C  0.75719432  0.89920521  0.23167588    -0.05900
C3314       C  0.76225808  0.90438548  0.21130396     0.00000
C3315       C  0.76709837  0.93916369  0.20408444    -0.08600
C3316       C  0.76440249  0.96810646  0.21769477    -0.06000
C3317       C  0.75584246  0.96401157  0.23851550     0.00000
C3318       C  0.75595465  0.92746623  0.24574439    -0.08500
C3319       C  0.75614577  0.91572272  0.26771711     0.61900
H3320       H  0.75462331  0.87184102  0.23643470     0.12600
H3321       H  0.76959722  0.99418328  0.21178044     0.12600
C3322       C  0.77452143  0.94548670  0.18194752     0.62100
F3323       F  0.75754432  0.87913824  0.26973542    -0.23100
F3324       F  0.72546215  0.92582633  0.27727266    -0.20400
F3325       F  0.78608372  0.92869600  0.27750257    -0.20100
F3326       F  0.74673361  0.93140455  0.17048325    -0.20100
F3327       F  0.80603992  0.92913775  0.17652509    -0.20400
F3328       F  0.77785888  0.98131097  0.17760988    -0.23100
loop_ 
_geom_bond_atom_site_label_1 
_geom_bond_atom_site_label_2 
_geom_bond_distance 
_geom_bond_site_symmetry_2 
_ccdc_geom_bond_type 
C1          C773   1.582       .  S
C1          C786   1.586       .  S
C1          C821   1.602       .  S
C1         C1634   1.611       .  S
N2            C7   1.351   1_554  A
N2            C6   1.346       .  A
N2           H34   1.030       .  S
N3           C11   1.353       .  A
N3         C1674   1.353       .  A
N4            C9   1.347   1_554  A
N4            C8   1.346       .  A
N4           H35   1.043       .  S
N5           C13   1.352       .  A
N5         C1676   1.351       .  A
C6           C14   1.390       .  A
C6           C22   1.418       .  A
C7           C23   1.416       .  A
C7           C15   1.385       .  A
C8           C16   1.391       .  A
C8           C25   1.418       .  A
C9           C24   1.412       .  A
C9           C17   1.385       .  A
C10        N1667   1.353   1_455  A
C10          C22   1.422       .  A
C10          C18   1.387       .  A
C11          C25   1.422       .  A
C11          C19   1.388       .  A
C12        N1669   1.351       .  A
C12          C20   1.384       .  A
C12          C23   1.399       .  A
C13          C21   1.384       .  A
C13          C24   1.400       .  A
C14          C15   1.386   1_554  A
C14          H26   1.082       .  S
C15          H27   1.082       .  S
C16          C17   1.386   1_554  A
C16          H28   1.082       .  S
C17          H29   1.082       .  S
C18        C1683   1.367   1_455  A
C18          H30   1.082       .  S
C19        C1682   1.370       .  A
C19          H31   1.082       .  S
C20        C1685   1.368   1_455  A
C20          H32   1.083       .  S
C21        C1684   1.369       .  A
C21          H33   1.083       .  S
C22         C706   1.485       .  S
C23         C738   1.491       .  S
C24         C754   1.476       .  S
C25         C722   1.487       .  S
C36         C645   1.580       .  S
C36         C661   1.620       .  S
C36         C674   1.608       .  S
C36        C1522   1.591   1_545  S
C37         C610   1.584   1_655  S
C37        C2242   1.609       .  S
C37        C2261   1.597       .  S
C37        C2293   1.579       .  S
N38          C43   1.348   1_554  A
N38          C42   1.354       .  A
N38          H70   1.040       .  S
N39          C47   1.349       .  A
N39         C878   1.351   1_545  A
N40          C45   1.350   1_554  A
N40          C44   1.349       .  A
N40          H71   1.038       .  S
N41          C49   1.352       .  A
N41         C880   1.350   1_545  A
C42          C50   1.385       .  A
C42          C58   1.413       .  A
C43          C59   1.411       .  A
C43          C51   1.388       .  A
C44          C52   1.387       .  A
C44          C61   1.409       .  A
C45          C60   1.411       .  A
C45          C53   1.387       .  A
C46         N871   1.350       .  A
C46          C58   1.410       .  A
C46          C54   1.386       .  A
C47          C61   1.410       .  A
C47          C55   1.387       .  A
C48         N873   1.349       .  A
C48          C56   1.389       .  A
C48          C59   1.415       .  A
C49          C57   1.387       .  A
C49          C60   1.412       .  A
C50          C51   1.380   1_554  A
C50          H62   1.082       .  S
C51          H63   1.082       .  S
C52          C53   1.376   1_554  A
C52          H64   1.082       .  S
C53          H65   1.082       .  S
C54         C887   1.372       .  A
C54          H66   1.082       .  S
C55         C886   1.368   1_545  A
C55          H67   1.082       .  S
C56         C889   1.369       .  A
C56          H68   1.082       .  S
C57         C888   1.364   1_545  A
C57          H69   1.082       .  S
C58         C530   1.493       .  S
C59         C562   1.475       .  S
C60         C546   1.481       .  S
C61         C517   1.477       .  S
N72          N73   1.318       .  A
N72          N78   1.312       .  A
N72        Mn101   2.196       .  S
N73          C80   1.352       .  A
N74          N76   1.315       .  A
N74          N75   1.320       .  A
N74         Mn90   2.211       .  S
N75          C81   1.357       .  A
N76          N77   1.318       .  A
N76        Mn101   2.188       .  S
N77          C81   1.350       .  A
N78          N79   1.318       .  A
N78         Mn90   2.178       .  S
N79          C80   1.352       .  A
C80         C565   1.483       .  S
C81         C693   1.493       .  S
N82          N88   1.316       .  A
N82          N83   1.322       .  A
N82        Mn112   2.224       .  S
N83          C91   1.357       .  A
N84          N85   1.320       .  A
N84          N86   1.313       .  A
N84         Mn90   2.206       .  S
N85          C92   1.353       .  A
N86          N87   1.320       .  A
N86        Mn112   2.189       .  S
N87          C92   1.353       .  A
N88          N89   1.319       .  A
N88         Mn90   2.193       .  S
N89          C91   1.350       .  A
Mn90       Cl114   2.544       .  S
C91         C626   1.476       .  S
C92         C757   1.490       .  S
N93          N94   1.320       .  A
N93          N99   1.315       .  A
N93        Mn101   2.207       .  S
N94         C102   1.357       .  A
N95          N97   1.313       .  A
N95          N96   1.326       .  A
N95        Mn113   2.229       .  S
N96         C103   1.360       .  A
N97          N98   1.315       .  A
N97        Mn101   2.178       .  S
N98         C103   1.350       .  A
N99         N100   1.318       .  A
N99        Mn113   2.193       .  S
N100        C102   1.350       .  A
Mn101      Cl114   2.543       .  S
C102        C613   1.490       .  S
C103        C741   1.498       .  S
N104        N105   1.320       .  A
N104        N110   1.313       .  A
N104       Mn112   2.208       .  S
N105        C115   1.355       .  A
N106        N107   1.323       .  A
N106        N108   1.318       .  A
N106       Mn113   2.227       .  S
N107        C116   1.356       .  A
N108        N109   1.321       .  A
N108       Mn112   2.203       .  S
N109        C116   1.352       .  A
N110        N111   1.316       .  A
N110       Mn113   2.173       .  S
N111        C115   1.351       .  A
Mn112      Cl114   2.549       .  S
Mn113      Cl114   2.549       .  S
C115        C549   1.489       .  S
C116        C677   1.480       .  S
N117        N118   1.320       .  A
N117        N123   1.320       .  A
N117       Mn146   2.200       .  S
N118        C125   1.349       .  A
N119        N121   1.314       .  A
N119        N120   1.321       .  A
N119       Mn135   2.203       .  S
N120        C126   1.354       .  A
N121        N122   1.320       .  A
N121       Mn146   2.202       .  S
N122        C126   1.353       .  A
N123        N124   1.323       .  A
N123       Mn135   2.219       .  S
N124        C125   1.354       .  A
C125        C818   1.477       .  S
C126        C533   1.484       .  S
N127        N133   1.313       .  A
N127        N128   1.318       .  A
N127       Mn157   2.182       .  S
N128        C136   1.349       .  A
N129        N130   1.324       .  A
N129        N131   1.319       .  A
N129       Mn135   2.229       .  S
N130        C137   1.358       .  A
N131        N132   1.320       .  A
N131       Mn157   2.210       .  S
N132        C137   1.353       .  A
N133        N134   1.321       .  A
N133       Mn135   2.201       .  S
N134        C136   1.354       .  A
Mn135      Cl159   2.557       .  S
C136        C725   1.482       .  S
C137        C498   1.502       .  S
N138        N139   1.317       .  A
N138        N144   1.312       .  A
N138       Mn146   2.172       .  S
N139        C147   1.348       .  A
N140        N142   1.320       .  A
N140        N141   1.318       .  A
N140       Mn158   2.194       .  S
N141        C148   1.348       .  A
N142        N143   1.323       .  A
N142       Mn146   2.221       .  S
N143        C148   1.354       .  A
N144        N145   1.322       .  A
N144       Mn158   2.215       .  S
N145        C147   1.359       .  A
Mn146      Cl159   2.544       .  S
C147        C709   1.492       .  S
C148        C485   1.471       .  S
N149        N150   1.323       .  A
N149        N155   1.318       .  A
N149       Mn157   2.217       .  S
N150        C160   1.357       .  A
N151        N152   1.317       .  A
N151        N153   1.313       .  A
N151       Mn158   2.181       .  S
N152        C161   1.351       .  A
N153        N154   1.316       .  A
N153       Mn157   2.182       .  S
N154        C161   1.351       .  A
N155        N156   1.324       .  A
N155       Mn158   2.223       .  S
N156        C160   1.354       .  A
Mn157      Cl159   2.546       .  S
Mn158      Cl159   2.551       .  S
C160        C805   1.504       .  S
C161        C514   1.478       .  S
N162        N163   1.319       .  A
N162       N1000   1.319   1_545  A
N162       Mn191   2.205       .  S
N163        C170   1.351   1_545  A
N164        N165   1.323       .  A
N164        N998   1.312       .  A
N164       Mn180   2.194       .  S
N165       C1003   1.354       .  A
N166        N167   1.318       .  A
N166        N996   1.313   1_545  A
N166       Mn191   2.190       .  S
N167        C171   1.351   1_545  A
N168        N169   1.321       .  A
N168        N994   1.319       .  A
N168       Mn180   2.221       .  S
N169       C1002   1.356       .  A
C170       N1001   1.358       .  A
C170        C658   1.487   1_565  S
C171        N997   1.353       .  A
C171        C418   1.489       .  S
N172        N173   1.315       .  A
N172       N1842   1.314       .  A
N172       Mn202   2.177       .  S
N173        C181   1.346       .  A
N174        N175   1.322       .  A
N174       N1840   1.318   1_455  A
N174       Mn180   2.211       .  S
N175       C1846   1.352   1_455  A
N176        N177   1.325       .  A
N176       N1838   1.321       .  A
N176       Mn202   2.222       .  S
N177        C182   1.355       .  A
N178        N179   1.320       .  A
N178       N1836   1.315   1_455  A
N178       Mn180   2.196       .  S
N179       C1845   1.352   1_455  A
Mn180     Cl2700   2.550   1_455  S
C181       N1843   1.357       .  A
C181        C466   1.478       .  S
C182       N1839   1.354       .  A
C182        C594   1.490       .  S
N183        N184   1.320       .  A
N183       N1853   1.312   1_455  A
N183       Mn191   2.198       .  S
N184       C1856   1.354       .  A
N185        N186   1.318       .  A
N185       N1851   1.316       .  A
N185       Mn203   2.193       .  S
N186        C193   1.352       .  A
N187        N188   1.324       .  A
N187       N1849   1.318   1_455  A
N187       Mn191   2.209       .  S
N188       C1857   1.354       .  A
N189        N190   1.316       .  A
N189       N1847   1.311       .  A
N189       Mn203   2.168       .  S
N190        C192   1.350       .  A
Mn191     Cl1868   2.551   1_455  S
C192       N1848   1.355       .  A
C192        C450   1.487       .  S
C193       N1852   1.356       .  A
C193        C581   1.492       .  S
N194        N195   1.322       .  A
N194       N1032   1.319       .  A
N194       Mn202   2.226       .  S
N195       C1037   1.355       .  A
N196        N197   1.316       .  A
N196       N1030   1.312   1_545  A
N196       Mn203   2.173       .  S
N197        C206   1.350       .  A
N198        N199   1.324       .  A
N198       N1028   1.313       .  A
N198       Mn202   2.207       .  S
N199       C1038   1.354       .  A
N200        N201   1.317       .  A
N200       N1026   1.318   1_545  A
N200       Mn203   2.176       .  S
N201        C205   1.345       .  A
Mn202     Cl1036   2.552       .  S
Mn203      Cl204   2.537       .  S
Cl204     Mn2676   2.540   1_545  S
Cl204     Mn1855   2.553       .  S
Cl204     Mn1034   2.551   1_545  S
C205       N1027   1.355   1_545  A
C205        C642   1.467       .  S
C206       N1031   1.350   1_545  A
C206        C434   1.473       .  S
N207        N208   1.320       .  A
N207       N1877   1.316       .  A
N207       Mn236   2.201       .  S
N208        C215   1.354       .  A
N209        N210   1.320       .  A
N209       N1875   1.313   1_455  A
N209       Mn225   2.199       .  S
N210       C1880   1.352       .  A
N211        N212   1.319       .  A
N211       N1873   1.313       .  A
N211       Mn236   2.185       .  S
N212        C216   1.352       .  A
N213        N214   1.322       .  A
N213       N1871   1.318   1_455  A
N213       Mn225   2.221       .  S
N214       C1879   1.356       .  A
C215       N1878   1.352       .  A
C215        C325   1.484       .  S
C216       N1874   1.354       .  A
C216        C373   1.489       .  S
N217        N218   1.320       .  A
N217       N1055   1.311   1_545  A
N217       Mn247   2.186       .  S
N218       C1058   1.353   1_545  A
N219        N220   1.320       .  A
N219       N1053   1.317       .  A
N219       Mn225   2.215       .  S
N220        C227   1.356       .  A
N221        N222   1.316       .  A
N221       N1051   1.316   1_545  A
N221       Mn247   2.185       .  S
N222       C1059   1.348       .  A
N223        N224   1.318       .  A
N223       N1049   1.313       .  A
N223       Mn225   2.199       .  S
N224        C226   1.354       .  A
Mn225     Cl1913   2.547   1_455  S
C226       N1050   1.351       .  A
C226        C386   1.482       .  S
C227       N1054   1.354       .  A
C227        C789   1.493       .  S
N228        N229   1.319       .  A
N228       N1066   1.314       .  A
N228       Mn236   2.188       .  S
N229        C237   1.351       .  A
N230        N231   1.322       .  A
N230       N1064   1.317   1_545  A
N230       Mn248   2.227       .  S
N231       C1070   1.358   1_545  A
N232        N233   1.320       .  A
N232       N1062   1.316       .  A
N232       Mn236   2.196       .  S
N233        C238   1.351       .  A
N234        N235   1.319       .  A
N234       N1060   1.314   1_545  A
N234       Mn248   2.184       .  S
N235       C1069   1.349       .  A
Mn236      Cl249   2.547       .  S
C237       N1067   1.352       .  A
C237        C402   1.478       .  S
C238       N1063   1.353       .  A
C238        C770   1.469       .  S
N239        N240   1.320       .  A
N239       N1909   1.316   1_455  A
N239       Mn247   2.194       .  S
N240       C1914   1.350       .  A
N241        N242   1.319       .  A
N241       N1907   1.313       .  A
N241       Mn248   2.208       .  S
N242        C251   1.353       .  A
N243        N244   1.317       .  A
N243       N1905   1.313   1_455  A
N243       Mn247   2.174       .  S
N244       C1915   1.351   1_455  A
N245        N246   1.322       .  A
N245       N1903   1.317       .  A
N245       Mn248   2.207       .  S
N246        C250   1.353       .  A
Mn247     Cl2745   2.543   1_445  S
Mn248     Cl1081   2.554   1_545  S
Cl249     Mn1889   2.544       .  S
Cl249     Mn2743   2.545       .  S
Cl249     Mn1080   2.545       .  S
C250       N1904   1.353       .  A
C250        C338   1.480       .  S
C251       N1908   1.354       .  A
C251        C354   1.494       .  S
N252        C257   1.354       .  A
N252        C256   1.352       .  A
N252        H284   1.038       .  S
N253        C260   1.350       .  A
N253        C261   1.352       .  A
N254        C259   1.350   1_655  A
N254        C258   1.352       .  A
N254        H285   1.038       .  S
N255        C262   1.353       .  A
N255        C263   1.350       .  A
C256        C264   1.388   1_655  A
C256        C272   1.417       .  A
C257        C273   1.416       .  A
C257        C265   1.385   1_655  A
C258        C266   1.387   1_655  A
C258        C275   1.413       .  A
C259        C274   1.411   1_455  A
C259        C267   1.387       .  A
C260        C272   1.414       .  A
C260        C268   1.388       .  A
C261        C275   1.412       .  A
C261        C269   1.386       .  A
C262        C270   1.386       .  A
C262        C273   1.413       .  A
C263        C271   1.388       .  A
C263        C274   1.415       .  A
C264        C265   1.380       .  A
C264        H276   1.082       .  S
C265        H277   1.082       .  S
C266        C267   1.378       .  A
C266        H278   1.082       .  S
C267        H279   1.082       .  S
C268        C269   1.369       .  A
C268        H280   1.082       .  S
C269        H281   1.083       .  S
C270        C271   1.368       .  A
C270        H282   1.082       .  S
C271        H283   1.082       .  S
C272        C469   1.487       .  S
C273        C370   1.493       .  S
C274        C357   1.479   1_655  S
C275        C453   1.484       .  S
N286        C291   1.348       .  A
N286        C290   1.351       .  A
N286        H318   1.038       .  S
N287        C294   1.350       .  A
N287        C295   1.348       .  A
N288        C293   1.350   1_565  A
N288        C292   1.346   1_565  A
N288        H319   1.039       .  S
N289        C296   1.349       .  A
N289        C297   1.352       .  A
C290        C298   1.386       .  A
C290        C306   1.408       .  A
C291        C307   1.408       .  A
C291        C299   1.388       .  A
C292        C300   1.387       .  A
C292        C309   1.406       .  A
C293        C308   1.407       .  A
C293        C301   1.385       .  A
C294        C306   1.409       .  A
C294        C302   1.386       .  A
C295        C309   1.411   1_565  A
C295        C303   1.388       .  A
C296        C307   1.412       .  A
C296       C1136   1.387       .  A
C297        C308   1.414   1_565  A
C297       C1137   1.386       .  A
C298        C299   1.373       .  A
C298        H310   1.082       .  S
C299        H311   1.082       .  S
C300        C301   1.376       .  A
C300        H312   1.082       .  S
C301        H313   1.082       .  S
C302        C303   1.366       .  A
C302        H314   1.082       .  S
C303        H315   1.082       .  S
C304        C305   1.372       .  A
C304       C1128   1.387       .  A
C304        H316   1.082       .  S
C305       C1129   1.387       .  A
C305        H317   1.082       .  S
C306        C421   1.480       .  S
C307       C1221   1.473       .  S
C308       C1237   1.487       .  S
C309        C437   1.470       .  S
C320        C482   1.587       .  S
C320       C1986   1.603       .  S
C320       C2005   1.586       .  S
C320       C2165   1.601   1_455  S
C321        C326   1.408       .  A
C321       C1986   1.430       .  A
C321        H328   1.069       .  S
C322       C1984   1.599       .  S
C322        C323   1.454       .  A
C322       C1985   1.431       .  A
C323        C330   1.529       .  S
C323        C324   1.412       .  A
C324        C325   1.395       .  A
C324        H329   1.085       .  S
C325       C1990   1.404       .  A
C326        C327   1.524       .  S
C326       C1989   1.410       .  A
C327        F331   1.386       .  S
C327        F332   1.382       .  S
C327        F333   1.384       .  S
C330        F334   1.364       .  S
C330        F335   1.384       .  S
C330        F336   1.385       .  S
C337        C342   1.409       .  A
C337       C2002   1.387       .  A
C337        H344   1.083       .  S
C338        C339   1.406       .  A
C338       C2001   1.391       .  A
C339        C346   1.521       .  S
C339        C340   1.406       .  A
C340        C341   1.423       .  A
C340        H345   1.072       .  S
C341       C1984   1.595       .  S
C341       C2006   1.460       .  A
C342        C343   1.538       .  S
C342       C2005   1.460       .  A
C343        F347   1.386       .  S
C343        F348   1.380       .  S
C343        F349   1.374   1_455  S
C346        F350   1.382       .  S
C346        F351   1.383       .  S
C346        F352   1.384       .  S
C353        C358   1.404       .  A
C353       C2018   1.410   1_455  A
C353        H360   1.082       .  S
C354        C355   1.426       .  A
C354       C2017   1.410       .  A
C355        C362   1.515       .  S
C355        C356   1.403       .  A
C356       C2021   1.397       .  A
C356        H361   1.084       .  S
C357        C358   1.411       .  A
C357       C2020   1.395   1_455  A
C358        C359   1.520       .  S
C359        F363   1.385       .  S
C359        F364   1.383       .  S
C359        F365   1.382       .  S
C362        F366   1.382       .  S
C362        F367   1.383       .  S
C362        F368   1.385       .  S
C369        C370   1.403   1_455  A
C369        C374   1.410       .  A
C369        H376   1.083       .  S
C370       C2035   1.417       .  A
C371        C378   1.518       .  S
C371        C372   1.405       .  A
C371       C2034   1.412       .  A
C372        C373   1.408       .  A
C372        H377   1.083       .  S
C373       C2038   1.423       .  A
C374        C375   1.521       .  S
C374       C2037   1.424       .  A
C375        F379   1.385       .  S
C375        F380   1.381       .  S
C375        F381   1.384       .  S
C378        F382   1.383       .  S
C378        F383   1.382       .  S
C378        F384   1.384       .  S
C385        C386   1.407       .  A
C385        C390   1.402       .  A
C385        H392   1.082       .  S
C386       C1219   1.422       .  A
C387        C394   1.519       .  S
C387        C388   1.403       .  A
C387       C1218   1.423   1_545  A
C388       C1221   1.399   1_545  A
C388        H393   1.084       .  S
C389        C390   1.409       .  A
C389       C1220   1.400       .  A
C389       C1139   1.479       .  S
C390        C391   1.517       .  S
C391        F395   1.385       .  S
C391        F396   1.382       .  S
C391       F1229   1.382       .  S
C394        F399   1.382       .  S
C394        F400   1.385       .  S
C394       F1230   1.383       .  S
F397       C1223   1.380       .  S
F398       C1226   1.383       .  S
C401        C402   1.407       .  A
C401        C406   1.408       .  A
C401        H408   1.083       .  S
C402       C1235   1.416       .  A
C403        C410   1.522       .  S
C403        C404   1.404       .  A
C403       C1234   1.422       .  A
C404       C1237   1.401       .  A
C404        H409   1.083       .  S
C405        C406   1.415       .  A
C405       C1236   1.403       .  A
C405       C1140   1.487       .  S
C406        C407   1.520       .  S
C407        F413   1.381       .  S
C407       F1243   1.385       .  S
C407       F1244   1.383       .  S
C410        F414   1.383       .  S
C410       F1247   1.379       .  S
C410       F1248   1.385       .  S
F411       C1239   1.384       .  S
F412       C1239   1.383       .  S
F415       C1242   1.379       .  S
F416       C1242   1.384       .  S
C417        C418   1.410       .  A
C417        C422   1.403       .  A
C417        H424   1.082       .  S
C418        C419   1.426   1_565  A
C419        C426   1.517       .  S
C419        C420   1.402       .  A
C420        C421   1.397   1_545  A
C420       H1257   1.083       .  S
C421        C422   1.409       .  A
C422        C423   1.518       .  S
C423        F429   1.384       .  S
C423       F1259   1.382       .  S
C423       F1260   1.383       .  S
H425       C1252   1.083       .  S
C426        F431   1.383       .  S
C426        F432   1.385       .  S
C426       F1262   1.383       .  S
F427       C1255   1.383       .  S
F428       C1255   1.380       .  S
F430       C1258   1.384       .  S
C433        C434   1.406       .  A
C433        C438   1.398       .  A
C433        H440   1.083       .  S
C434       C1267   1.421   1_545  A
C435        C442   1.513       .  S
C435        C436   1.408       .  A
C435       C1266   1.420       .  A
C436       C1269   1.400       .  A
C436        H441   1.084       .  S
C437        C438   1.410       .  A
C437       C1268   1.398   1_545  A
C438        C439   1.520       .  S
C439        F443   1.384       .  S
C439        F444   1.382       .  S
C439        F445   1.382       .  S
C442        F446   1.375       .  S
C442        F447   1.383       .  S
C442        F448   1.386       .  S
C449        C450   1.409       .  A
C449        C454   1.402       .  A
C449        H456   1.082       .  S
C450       C2115   1.422       .  A
C451        C458   1.520       .  S
C451        C452   1.405       .  A
C451       C2114   1.419       .  A
C452        C453   1.403   1_455  A
C452        H457   1.083       .  S
C453       C2118   1.416       .  A
C454        C455   1.520       .  S
C454       C2117   1.411       .  A
C455        F459   1.385       .  S
C455        F460   1.382       .  S
C455        F461   1.382       .  S
C458        F462   1.378       .  S
C458        F463   1.384       .  S
C458        F464   1.385       .  S
C465        C470   1.405       .  A
C465       C2130   1.407   1_455  A
C465        H472   1.083       .  S
C466        C467   1.424       .  A
C466       C2129   1.405       .  A
C467        C474   1.525       .  S
C467        C468   1.404       .  A
C468       C2133   1.400       .  A
C468        H473   1.083       .  S
C469        C470   1.414   1_655  A
C469       C2132   1.399       .  A
C470        C471   1.518       .  S
C471        F475   1.384       .  S
C471        F476   1.383       .  S
C471        F477   1.381       .  S
C474        F478   1.381       .  S
C474        F479   1.383       .  S
C474        F480   1.385       .  S
C481        C482   1.423       .  A
C481        C486   1.406       .  A
C481        H488   1.075       .  S
C482        C483   1.458       .  A
C483        C490   1.536       .  S
C483        C484   1.409       .  A
C484        C485   1.387       .  A
C484        H489   1.083       .  S
C485        C486   1.405       .  A
C486        C487   1.520       .  S
C487        F491   1.385       .  S
C487        F492   1.383       .  S
C487        F493   1.383       .  S
C490        F494   1.380       .  S
C490        F495   1.375       .  S
C490        F496   1.385       .  S
C497        C498   1.400       .  A
C497        C502   1.419       .  A
C497        H504   1.082       .  S
C498        C499   1.411       .  A
C499        C506   1.525       .  S
C499        C500   1.405       .  A
C500        C501   1.426       .  A
C500        H505   1.068       .  S
C501       C1984   1.608       .  S
C501        C502   1.456       .  A
C502        C503   1.535       .  S
C503        F507   1.380       .  S
C503        F508   1.386       .  S
C503        F509   1.371       .  S
C506        F510   1.382       .  S
C506        F511   1.383       .  S
C506        F512   1.385       .  S
C513        C514   1.406       .  A
C513        C518   1.400       .  A
C513        H520   1.082       .  S
C514        C515   1.421       .  A
C515        C522   1.517       .  S
C515        C516   1.402       .  A
C516        C517   1.397       .  A
C516        H521   1.084       .  S
C517        C518   1.411       .  A
C518        C519   1.519       .  S
C519        F523   1.384       .  S
C519        F524   1.383       .  S
C519        F525   1.381       .  S
C522        F526   1.384       .  S
C522        F527   1.383       .  S
C522        F528   1.384       .  S
C529        C530   1.404       .  A
C529        C534   1.406       .  A
C529        H536   1.083       .  S
C530        C531   1.416       .  A
C531        C538   1.519       .  S
C531        C532   1.409       .  A
C532        C533   1.406       .  A
C532        H537   1.083       .  S
C533        C534   1.419       .  A
C534        C535   1.520       .  S
C535        F539   1.385       .  S
C535        F540   1.380       .  S
C535        F541   1.384       .  S
C538        F542   1.381       .  S
C538        F543   1.383       .  S
C538        F544   1.385       .  S
C545        C546   1.398       .  A
C545        C550   1.404       .  A
C545        H552   1.083       .  S
C546        C547   1.411       .  A
C547        C554   1.521       .  S
C547        C548   1.403       .  A
C548        C549   1.411       .  A
C548        H553   1.082       .  S
C549        C550   1.424       .  A
C550        C551   1.518       .  S
C551        F555   1.385       .  S
C551        F556   1.382       .  S
C551        F557   1.383       .  S
C554        F558   1.382       .  S
C554        F559   1.381       .  S
C554        F560   1.385       .  S
C561        C562   1.396       .  A
C561        C566   1.402       .  A
C561        H568   1.084       .  S
C562        C563   1.409       .  A
C563        C570   1.520       .  S
C563        C564   1.402       .  A
C564        C565   1.408       .  A
C564        H569   1.082       .  S
C565        C566   1.424       .  A
C566        C567   1.518       .  S
C567        F571   1.384       .  S
C567        F572   1.383       .  S
C567        F573   1.383       .  S
C570        F574   1.384       .  S
C570        F575   1.383       .  S
C570        F576   1.382       .  S
C577        C582   1.414       .  A
C577       C2242   1.425   1_455  A
C577        H584   1.075       .  S
C578       C1701   1.611       .  S
C578        C579   1.462       .  A
C578       C2241   1.426       .  A
C579        C586   1.538       .  S
C579        C580   1.409       .  A
C580        C581   1.391       .  A
C580        H585   1.084       .  S
C581       C2246   1.410       .  A
C582        C583   1.518       .  S
C582       C2245   1.412       .  A
C583        F587   1.385       .  S
C583        F588   1.384       .  S
C583        F589   1.383       .  S
C586        F590   1.377       .  S
C586        F591   1.368       .  S
C586        F592   1.388       .  S
C593        C594   1.388       .  A
C593        C598   1.416       .  A
C593        H600   1.082       .  S
C594       C2259   1.408       .  A
C595        C602   1.518       .  S
C595        C596   1.409       .  A
C595       C2258   1.406       .  A
C596       C2261   1.427       .  A
C596        H601   1.075       .  S
C597       C1701   1.605       .  S
C597        C598   1.457       .  A
C597       C2260   1.429       .  A
C598        C599   1.530       .  S
C599        F603   1.385       .  S
C599        F604   1.368       .  S
C599        F605   1.377       .  S
C602        F606   1.383   1_655  S
C602        F607   1.383       .  S
C602        F608   1.384       .  S
C609        C610   1.417       .  A
C609        C614   1.408       .  A
C609        H616   1.074       .  S
C610        C611   1.451       .  A
C611        C618   1.533       .  S
C611        C612   1.406       .  A
C612        C613   1.396       .  A
C612        H617   1.085       .  S
C613        C614   1.418       .  A
C614        C615   1.520       .  S
C615        F619   1.385       .  S
C615        F620   1.382       .  S
C615        F621   1.384       .  S
C618        F622   1.382       .  S
C618        F623   1.371       .  S
C618        F624   1.387       .  S
C625        C626   1.393       .  A
C625        C630   1.418       .  A
C625        H632   1.084       .  S
C626        C627   1.398       .  A
C627        C634   1.518       .  S
C627        C628   1.402       .  A
C628        C629   1.431       .  A
C628        H633   1.079       .  S
C629       C1701   1.586       .  S
C629        C630   1.462       .  A
C630        C631   1.533       .  S
C631        F635   1.386       .  S
C631        F636   1.368       .  S
C631        F637   1.380       .  S
C634        F638   1.383       .  S
C634        F639   1.383       .  S
C634        F640   1.385       .  S
C641        C642   1.387       .  A
C641        C646   1.408       .  A
C641        H648   1.083       .  S
C642        C643   1.408       .  A
C643        C650   1.520       .  S
C643        C644   1.407       .  A
C644        C645   1.421       .  A
C644        H649   1.078       .  S
C645        C646   1.450       .  A
C646       C1479   1.526       .  S
C647       C1478   1.527       .  S
C647        F651   1.385       .  S
C647        F652   1.368       .  S
C647       F1485   1.379       .  S
C650        F655   1.383       .  S
C650        F656   1.385       .  S
C650       F1486   1.383       .  S
F653       C1479   1.379       .  S
F654       C1482   1.383       .  S
C657        C658   1.393   1_565  A
C657        C662   1.419       .  A
C657        H664   1.082       .  S
C658       C1491   1.403       .  A
C659        C666   1.522       .  S
C659        C660   1.407       .  A
C659       C1490   1.401       .  A
C660       C1493   1.436       .  A
C660        H665   1.074       .  S
C661        C662   1.461   1_545  A
C661       C1492   1.434       .  A
C662        C663   1.536       .  S
C663        F667   1.375       .  S
C663        F669   1.385       .  S
C663       F1500   1.370       .  S
C666        F670   1.384       .  S
C666        F672   1.385       .  S
C666       F1503   1.382       .  S
F668       C1495   1.372       .  S
F671       C1498   1.382       .  S
C673        C674   1.436       .  A
C673        C678   1.403       .  A
C673        H680   1.078       .  S
C674        C675   1.461       .  A
C675        C682   1.531       .  S
C675        C676   1.422       .  A
C676        C677   1.392       .  A
C676        H681   1.082       .  S
C677        C678   1.397       .  A
C678        C679   1.520       .  S
C679        F683   1.383       .  S
C679        F684   1.385       .  S
C679        F685   1.384       .  S
C682        F686   1.373   1_545  S
C682        F687   1.379   1_545  S
C682        F688   1.385       .  S
C689        C690   1.422       .  A
C689        C694   1.407       .  A
C689        H696   1.076       .  S
C690        C868   1.584       .  S
C690        C691   1.457       .  A
C691        C698   1.535       .  S
C691        C692   1.407       .  A
C692        C693   1.395       .  A
C692        H697   1.085       .  S
C693        C694   1.416       .  A
C694        C695   1.523       .  S
C695        F699   1.385       .  S
C695        F700   1.383       .  S
C695        F701   1.383       .  S
C698        F702   1.381       .  S
C698        F703   1.364       .  S
C698        F704   1.388       .  S
C705        C706   1.399       .  A
C705        C710   1.406       .  A
C705        H712   1.083       .  S
C706        C707   1.412       .  A
C707        C714   1.518       .  S
C707        C708   1.405       .  A
C708        C709   1.407       .  A
C708        H713   1.080       .  S
C709        C710   1.429       .  A
C710        C711   1.523       .  S
C711        F715   1.386       .  S
C711        F716   1.381       .  S
C711        F717   1.384       .  S
C714        F718   1.382       .  S
C714        F719   1.382       .  S
C714        F720   1.384       .  S
C721        C722   1.402       .  A
C721        C726   1.407       .  A
C721        H728   1.083       .  S
C722        C723   1.415       .  A
C723        C730   1.516       .  S
C723        C724   1.400       .  A
C724        C725   1.404       .  A
C724        H729   1.084       .  S
C725        C726   1.420       .  A
C726        C727   1.516       .  S
C727        F731   1.385       .  S
C727        F732   1.379       .  S
C727        F733   1.384       .  S
C730        F734   1.383       .  S
C730        F735   1.383       .  S
C730        F736   1.383       .  S
C737        C738   1.404       .  A
C737        C742   1.412       .  A
C737        H744   1.083       .  S
C738        C739   1.417       .  A
C739        C746   1.523       .  S
C739        C740   1.404       .  A
C740        C741   1.409       .  A
C740        H745   1.082       .  S
C741        C742   1.422       .  A
C742        C743   1.516       .  S
C743        F747   1.384       .  S
C743        F748   1.383       .  S
C743        F749   1.382       .  S
C746        F750   1.384       .  S
C746        F751   1.382       .  S
C746        F752   1.385       .  S
C753        C754   1.398       .  A
C753        C758   1.404       .  A
C753        H760   1.084       .  S
C754        C755   1.410       .  A
C755        C762   1.517       .  S
C755        C756   1.407       .  A
C756        C757   1.409       .  A
C756        H761   1.082       .  S
C757        C758   1.423       .  A
C758        C759   1.517       .  S
C759        F763   1.384       .  S
C759        F764   1.383       .  S
C759        F765   1.382       .  S
C762        F766   1.384       .  S
C762        F767   1.383       .  S
C762        F768   1.382       .  S
C769        C774   1.420       .  A
C769       C1602   1.395       .  A
C769        H776   1.083   1_565  S
C770        C771   1.394       .  A
C770       C1601   1.394       .  A
C771        C778   1.519       .  S
C771        C772   1.399       .  A
C772        C773   1.431       .  A
C772        H777   1.078       .  S
C773       C1606   1.460       .  A
C774        C775   1.538   1_565  S
C774       C1605   1.463       .  A
C775        F779   1.386   1_545  S
C775        F781   1.379       .  S
C775       F1612   1.369   1_545  S
C778        F782   1.383       .  S
C778        F784   1.385       .  S
C778       F1615   1.383       .  S
F780       C1607   1.365       .  S
F783       C1610   1.382   1_545  S
C785        C790   1.410       .  A
C785       C1618   1.414   1_545  A
C785        H792   1.076       .  S
C786        C787   1.453       .  A
C786       C1617   1.420       .  A
C787        C794   1.536       .  S
C787        C788   1.408       .  A
C788        C789   1.396       .  A
C788        H793   1.086       .  S
C789       C1622   1.416       .  A
C790        C791   1.520       .  S
C790       C1621   1.421       .  A
C791        F795   1.384       .  S
C791        F797   1.384       .  S
C791       F1628   1.383       .  S
C794        F798   1.382       .  S
C794        F800   1.386       .  S
C794       F1631   1.370       .  S
F796       C1623   1.383       .  S
F799       C1626   1.372       .  S
C801        C802   1.423       .  A
C801        C806   1.416       .  A
C801        H808   1.074       .  S
C802        C833   1.615   1_545  S
C802        C803   1.458       .  A
C803        C810   1.532       .  S
C803        C804   1.411       .  A
C804        C805   1.392       .  A
C804        H809   1.084       .  S
C805        C806   1.417       .  A
C806        C807   1.518       .  S
C807        F811   1.385       .  S
C807        F812   1.383       .  S
C807        F813   1.383       .  S
C810        F814   1.378       .  S
C810        F815   1.366       .  S
C810        F816   1.388       .  S
C817        C818   1.383       .  A
C817        C822   1.411       .  A
C817        H824   1.083       .  S
C818        C819   1.405       .  A
C819        C826   1.519       .  S
C819        C820   1.412       .  A
C820        C821   1.430       .  A
C820        H825   1.075       .  S
C821        C822   1.460       .  A
C822        C823   1.531       .  S
C823        F827   1.386       .  S
C823        F828   1.366       .  S
C823        F829   1.375       .  S
C826        F830   1.383       .  S
C826        F831   1.383       .  S
C826        F832   1.384       .  S
C833       C1605   1.583       .  S
C833       C1618   1.586       .  S
C833       C1653   1.597       .  S
N834        C839   1.350   1_554  A
N834        C838   1.345       .  A
N834        H866   1.035       .  S
N835       C2506   1.353       .  A
N835        C843   1.350       .  A
N836        C841   1.351       .  A
N836        C840   1.348   1_556  A
N836        H867   1.037       .  S
N837       C2508   1.350       .  A
N837        C845   1.350       .  A
C838        C846   1.390       .  A
C838        C854   1.414       .  A
C839        C855   1.413       .  A
C839        C847   1.385       .  A
C840        C848   1.392       .  A
C840        C857   1.416       .  A
C841        C856   1.407       .  A
C841        C849   1.382       .  A
C842       N2499   1.353   1_455  A
C842        C854   1.419       .  A
C842        C850   1.386       .  A
C843        C857   1.420       .  A
C843        C851   1.390       .  A
C844       N2501   1.351   1_455  A
C844        C852   1.384       .  A
C844        C855   1.398       .  A
C845        C853   1.384       .  A
C845        C856   1.397       .  A
C846        C847   1.385   1_554  A
C846        H858   1.082       .  S
C847        H859   1.082       .  S
C848        C849   1.382   1_554  A
C848        H860   1.082       .  S
C849        H861   1.082       .  S
C850       C2515   1.366   1_455  A
C850        H862   1.082       .  S
C851       C2514   1.365       .  A
C851        H863   1.082       .  S
C852       C2517   1.367   1_455  A
C852        H864   1.083       .  S
C853       C2516   1.368       .  A
C853        H865   1.083       .  S
C854       C1538   1.480       .  S
C855       C1570   1.483       .  S
C856       C1586   1.477       .  S
C857       C1554   1.478       .  S
C868       C1477   1.586       .  S
C868       C1493   1.622       .  S
C868       C1506   1.605       .  S
C869       C3074   1.616       .  S
C869       C3093   1.606       .  S
C869       C1442   1.587   1_655  S
C869       C3125   1.582       .  S
N870        C875   1.348   1_554  A
N870        C874   1.352       .  A
N870        H902   1.038       .  S
N871        C879   1.347       .  A
N872        C877   1.352       .  A
N872        C876   1.350   1_556  A
N872        H903   1.040       .  S
N873        C881   1.354       .  A
C874        C882   1.386       .  A
C874        C890   1.411       .  A
C875        C891   1.411       .  A
C875        C883   1.388       .  A
C876        C884   1.388       .  A
C876        C893   1.412       .  A
C877        C892   1.411       .  A
C877        C885   1.386       .  A
C878        C890   1.413       .  A
C878        C886   1.387       .  A
C879        C893   1.409       .  A
C879        C887   1.388       .  A
C880        C888   1.388       .  A
C880        C891   1.413       .  A
C881        C889   1.385       .  A
C881        C892   1.412       .  A
C882        C883   1.379   1_554  A
C882        H894   1.082       .  S
C883        H895   1.083       .  S
C884        C885   1.380   1_554  A
C884        H896   1.082       .  S
C885        H897   1.082       .  S
C886        H898   1.082       .  S
C887        H899   1.082       .  S
C888        H900   1.082       .  S
C889        H901   1.082       .  S
C890       C1362   1.489       .  S
C891       C1394   1.476       .  S
C892       C1378   1.492       .  S
C893       C1349   1.479       .  S
N904        N905   1.319       .  A
N904        N910   1.312       .  A
N904       Mn933   2.205       .  S
N905        C912   1.354       .  A
N906        N908   1.317       .  A
N906        N907   1.321       .  A
N906       Mn922   2.212       .  S
N907        C913   1.356       .  A
N908        N909   1.321       .  A
N908       Mn933   2.213       .  S
N909        C913   1.354       .  A
N910        N911   1.316       .  A
N910       Mn922   2.170       .  S
N911        C912   1.350       .  A
C912       C1397   1.483       .  S
C913       C1525   1.501       .  S
N914        N920   1.316       .  A
N914        N915   1.322       .  A
N914       Mn944   2.223       .  S
N915        C923   1.357       .  A
N916        N917   1.324       .  A
N916        N918   1.314       .  A
N916       Mn922   2.218       .  S
N917        C924   1.357       .  A
N918        N919   1.318       .  A
N918       Mn944   2.188       .  S
N919        C924   1.351       .  A
N920        N921   1.318       .  A
N920       Mn922   2.185       .  S
N921        C923   1.349       .  A
Mn922      Cl946   2.547       .  S
C923       C1458   1.474       .  S
C924       C1589   1.490       .  S
N925        N926   1.322       .  A
N925        N931   1.318       .  A
N925       Mn933   2.223       .  S
N926        C934   1.359       .  A
N927        N929   1.314       .  A
N927        N928   1.322       .  A
N927       Mn945   2.209       .  S
N928        C935   1.356       .  A
N929        N930   1.317       .  A
N929       Mn933   2.190       .  S
N930        C935   1.353       .  A
N931        N932   1.321       .  A
N931       Mn945   2.207       .  S
N932        C934   1.352       .  A
Mn933      Cl946   2.550       .  S
C934       C1445   1.499       .  S
C935       C1573   1.495       .  S
N936        N937   1.321       .  A
N936        N942   1.313       .  A
N936       Mn944   2.207       .  S
N937        C947   1.353       .  A
N938        N939   1.322       .  A
N938        N940   1.318       .  A
N938       Mn945   2.223       .  S
N939        C948   1.355       .  A
N940        N941   1.322       .  A
N940       Mn944   2.214       .  S
N941        C948   1.354       .  A
N942        N943   1.322       .  A
N942       Mn945   2.207       .  S
N943        C947   1.358       .  A
Mn944      Cl946   2.553       .  S
Mn945      Cl946   2.551       .  S
C947       C1381   1.501       .  S
C948       C1509   1.482       .  S
N949        N950   1.321       .  A
N949        N955   1.318       .  A
N949       Mn978   2.208       .  S
N950        C957   1.352       .  A
N951        N953   1.314       .  A
N951        N952   1.317       .  A
N951       Mn967   2.189       .  S
N952        C958   1.349       .  A
N953        N954   1.324       .  A
N953       Mn978   2.219       .  S
N954        C958   1.358       .  A
N955        N956   1.321       .  A
N955       Mn967   2.205       .  S
N956        C957   1.351       .  A
C957       C1650   1.475       .  S
C958       C1365   1.487       .  S
N959        N965   1.311       .  A
N959        N960   1.317       .  A
N959       Mn989   2.173       .  S
N960        C968   1.351       .  A
N961        N962   1.321       .  A
N961        N963   1.316       .  A
N961       Mn967   2.202       .  S
N962        C969   1.356       .  A
N963        N964   1.315       .  A
N963       Mn989   2.193       .  S
N964        C969   1.350       .  A
N965        N966   1.319       .  A
N965       Mn967   2.197       .  S
N966        C968   1.354       .  A
Mn967      Cl991   2.548       .  S
C968       C1557   1.489       .  S
C969       C1330   1.488       .  S
N970        N971   1.317       .  A
N970        N976   1.312       .  A
N970       Mn978   2.180       .  S
N971        C979   1.349       .  A
N972        N974   1.320       .  A
N972        N973   1.321       .  A
N972       Mn990   2.208       .  S
N973        C980   1.352       .  A
N974        N975   1.324       .  A
N974       Mn978   2.232       .  S
N975        C980   1.356       .  A
N976        N977   1.320       .  A
N976       Mn990   2.201       .  S
N977        C979   1.356       .  A
Mn978      Cl991   2.548       .  S
C979       C1541   1.489       .  S
C980       C1317   1.481       .  S
N981        N982   1.321       .  A
N981        N987   1.316       .  A
N981       Mn989   2.201       .  S
N982        C992   1.354       .  A
N983        N984   1.319       .  A
N983        N985   1.313       .  A
N983       Mn990   2.201       .  S
N984        C993   1.354       .  A
N985        N986   1.318       .  A
N985       Mn989   2.181       .  S
N986        C993   1.350       .  A
N987        N988   1.322       .  A
N987       Mn990   2.216       .  S
N988        C992   1.354       .  A
Mn989      Cl991   2.544       .  S
Mn990      Cl991   2.547       .  S
C992       C1637   1.493       .  S
C993       C1346   1.480       .  S
N994        N995   1.322       .  A
N994      Mn1023   2.218       .  S
N995       C1002   1.354       .  A
N996        N997   1.319       .  A
N996      Mn1012   2.188       .  S
N998        N999   1.318       .  A
N998      Mn1023   2.190       .  S
N999       C1003   1.350       .  A
N1000      N1001   1.323       .  A
N1000     Mn1012   2.227       .  S
C1002      C1490   1.485       .  S
C1003      C1250   1.482       .  S
N1004      N2674   1.314       .  A
N1004      N1005   1.319       .  A
N1004     Mn1034   2.198       .  S
N1005      C1013   1.351       .  A
N1006      N1007   1.324       .  A
N1006      N2672   1.320   1_455  A
N1006     Mn1012   2.224       .  S
N1007      C2678   1.354   1_455  A
N1008      N2670   1.319       .  A
N1008      N1009   1.321       .  A
N1008     Mn1034   2.207       .  S
N1009      C1014   1.352       .  A
N1010      N2668   1.314   1_455  A
N1010      N1011   1.322       .  A
N1010     Mn1012   2.205       .  S
N1011      C2677   1.355   1_455  A
Mn1012    Cl1868   2.551   1_465  S
C1013      N2675   1.354       .  A
C1013      C1298   1.480       .  S
C1014      N2671   1.351       .  A
C1014      C1426   1.477       .  S
N1015      N1016   1.321       .  A
N1015      N2685   1.314   1_455  A
N1015     Mn1023   2.198       .  S
N1016      C2688   1.354       .  A
N1017      N2683   1.317       .  A
N1017      N1018   1.321       .  A
N1017     Mn1035   2.209       .  S
N1018      C1025   1.355       .  A
N1019      N2681   1.317   1_455  A
N1019      N1020   1.325       .  A
N1019     Mn1023   2.214       .  S
N1020      C2689   1.355       .  A
N1021      N2679   1.313       .  A
N1021      N1022   1.316       .  A
N1021     Mn1035   2.179       .  S
N1022      C1024   1.349       .  A
Mn1023    Cl2700   2.555   1_455  S
C1024      N2680   1.357       .  A
C1024      C1282   1.478       .  S
C1025      N2684   1.352       .  A
C1025      C1413   1.491       .  S
N1026      N1027   1.322       .  A
N1026     Mn1034   2.223       .  S
N1028      N1029   1.319       .  A
N1028     Mn1035   2.190       .  S
N1029      C1038   1.349       .  A
N1030      N1031   1.317       .  A
N1030     Mn1034   2.181       .  S
N1032      N1033   1.320       .  A
N1032     Mn1035   2.198       .  S
N1033      C1037   1.350       .  A
Mn1035    Cl1036   2.546       .  S
Cl1036    Mn1844   2.551       .  S
Cl1036    Mn2687   2.551       .  S
C1037      C1474   1.477       .  S
C1038      C1266   1.480       .  S
N1039      N1040   1.324       .  A
N1039      N2709   1.316       .  A
N1039     Mn1068   2.219       .  S
N1040      C1047   1.359       .  A
N1041      N2707   1.314   1_455  A
N1041      N1042   1.319       .  A
N1041     Mn1057   2.210       .  S
N1042      C2712   1.353   1_455  A
N1043      N2705   1.314       .  A
N1043      N1044   1.317       .  A
N1043     Mn1068   2.171       .  S
N1044      C1048   1.349       .  A
N1045      N2703   1.315   1_455  A
N1045      N1046   1.318       .  A
N1045     Mn1057   2.189       .  S
N1046      C2711   1.351       .  A
C1047      N2710   1.349       .  A
C1047      C1157   1.495       .  S
C1048      N2706   1.357       .  A
C1048      C1205   1.486       .  S
N1049      N1050   1.320       .  A
N1049     Mn1079   2.185       .  S
N1051      N1052   1.323       .  A
N1051     Mn1057   2.223       .  S
N1052      C1059   1.360   1_565  A
N1053      N1054   1.323       .  A
N1053     Mn1079   2.209       .  S
N1055      N1056   1.314       .  A
N1055     Mn1057   2.174       .  S
N1056      C1058   1.351       .  A
Mn1057    Cl2745   2.543   1_455  S
C1058      C1218   1.482       .  S
C1059      C1621   1.492       .  S
N1060      N1061   1.323       .  A
N1060     Mn1068   2.219       .  S
N1061      C1069   1.357   1_565  A
N1062      N1063   1.319       .  A
N1062     Mn1080   2.206       .  S
N1064      N1065   1.319       .  A
N1064     Mn1068   2.189       .  S
N1065      C1070   1.349       .  A
N1066      N1067   1.320       .  A
N1066     Mn1080   2.200       .  S
Mn1068    Cl1081   2.546       .  S
C1069      C1234   1.484       .  S
C1070      C1602   1.474       .  S
N1071      N1072   1.317       .  A
N1071      N2741   1.318   1_455  A
N1071     Mn1079   2.188       .  S
N1072      C2746   1.347   1_455  A
N1073      N1074   1.317       .  A
N1073      N2739   1.312       .  A
N1073     Mn1080   2.185       .  S
N1074      C1083   1.350       .  A
N1075      N2737   1.313   1_455  A
N1075      N1076   1.319       .  A
N1075     Mn1079   2.200       .  S
N1076      C2747   1.355   1_455  A
N1077      N2735   1.318       .  A
N1077      N1078   1.323       .  A
N1077     Mn1080   2.216       .  S
N1078      C1082   1.354       .  A
Mn1079    Cl1913   2.549   1_455  S
Cl1081    Mn2721   2.553       .  S
Cl1081    Mn1911   2.541   1_565  S
C1082      N2736   1.353       .  A
C1082      C1170   1.482       .  S
C1083      N2740   1.354       .  A
C1083      C1186   1.486       .  S
N1084      C1089   1.351       .  A
N1084      C1088   1.350       .  A
N1084      H1116   1.042   1_655  S
N1085      C1092   1.348       .  A
N1085      C1093   1.350       .  A
N1086      C1091   1.348   1_455  A
N1086      C1090   1.349   1_455  A
N1086      H1117   1.041       .  S
N1087      C1094   1.350       .  A
N1087      C1095   1.348   1_655  A
C1088      C1096   1.387       .  A
C1088      C1104   1.412       .  A
C1089      C1105   1.411       .  A
C1089      C1097   1.385       .  A
C1090      C1098   1.387       .  A
C1090      C1107   1.410   1_655  A
C1091      C1106   1.409       .  A
C1091      C1099   1.387       .  A
C1092      C1104   1.413   1_455  A
C1092      C1100   1.388       .  A
C1093      C1107   1.409       .  A
C1093      C1101   1.385       .  A
C1094      C1102   1.386   1_655  A
C1094      C1105   1.409       .  A
C1095      C1103   1.387       .  A
C1095      C1106   1.410   1_455  A
C1096      C1097   1.382       .  A
C1096      H1108   1.082       .  S
C1097      H1109   1.082       .  S
C1098      C1099   1.381       .  A
C1098      H1110   1.083       .  S
C1099      H1111   1.082       .  S
C1100      C1101   1.374       .  A
C1100      H1112   1.082       .  S
C1101      H1113   1.082       .  S
C1102      C1103   1.373       .  A
C1102      H1114   1.082       .  S
C1103      H1115   1.083       .  S
C1104      C1301   1.488       .  S
C1105      C1202   1.487       .  S
C1106      C1189   1.481       .  S
C1107      C1285   1.484       .  S
N1118      C1123   1.348       .  A
N1118      C1122   1.350       .  A
N1118      H1150   1.042       .  S
N1119      C1126   1.350       .  A
N1119      C1127   1.348       .  A
N1120      C1125   1.349       .  A
N1120      C1124   1.350       .  A
N1120      H1151   1.042       .  S
N1121      C1128   1.349       .  A
N1121      C1129   1.350       .  A
C1122      C1130   1.386       .  A
C1122      C1138   1.411       .  A
C1123      C1139   1.410       .  A
C1123      C1131   1.388       .  A
C1124      C1132   1.386       .  A
C1124      C1141   1.410       .  A
C1125      C1140   1.411       .  A
C1125      C1133   1.388       .  A
C1126      C1138   1.410       .  A
C1126      C1134   1.386       .  A
C1127      C1141   1.409       .  A
C1127      C1135   1.386       .  A
C1128      C1139   1.410       .  A
C1129      C1140   1.412       .  A
C1130      C1131   1.382       .  A
C1130      H1142   1.082       .  S
C1131      H1143   1.082       .  S
C1132      C1133   1.383       .  A
C1132      H1144   1.082       .  S
C1133      H1145   1.082       .  S
C1134      C1135   1.372       .  A
C1134      H1146   1.082       .  S
C1135      H1147   1.082       .  S
C1136      C1137   1.366       .  A
C1136      H1148   1.082       .  S
C1137      H1149   1.082       .  S
C1138      C1253   1.490       .  S
C1141      C1269   1.485       .  S
C1152      C2818   1.595       .  S
C1152      C2837   1.589       .  S
C1152      C1314   1.595       .  S
C1152      C2997   1.600   1_455  S
C1153      C2818   1.426       .  A
C1153      C1158   1.403       .  A
C1153      H1160   1.070       .  S
C1154      C2816   1.604       .  S
C1154      C2817   1.424       .  A
C1154      C1155   1.457       .  A
C1155      C1162   1.535       .  S
C1155      C1156   1.418       .  A
C1156      C1157   1.398       .  A
C1156      H1161   1.082       .  S
C1157      C2822   1.411       .  A
C1158      C1159   1.525       .  S
C1158      C2821   1.407       .  A
C1159      F1163   1.385       .  S
C1159      F1164   1.383       .  S
C1159      F1165   1.384       .  S
C1162      F1166   1.373       .  S
C1162      F1167   1.380       .  S
C1162      F1168   1.385       .  S
C1169      C2834   1.388       .  A
C1169      C1174   1.410       .  A
C1169      H1176   1.083       .  S
C1170      C2833   1.391       .  A
C1170      C1171   1.407       .  A
C1171      C1178   1.521       .  S
C1171      C1172   1.409       .  A
C1172      C1173   1.424       .  A
C1172      H1177   1.075       .  S
C1173      C2816   1.595       .  S
C1173      C2838   1.457       .  A
C1174      C1175   1.535       .  S
C1174      C2837   1.456       .  A
C1175      F1179   1.385       .  S
C1175      F1180   1.380       .  S
C1175      F1181   1.375   1_455  S
C1178      F1182   1.383       .  S
C1178      F1183   1.383       .  S
C1178      F1184   1.384       .  S
C1185      C2850   1.405   1_455  A
C1185      C1190   1.403       .  A
C1185      H1192   1.083       .  S
C1186      C2849   1.408       .  A
C1186      C1187   1.426       .  A
C1187      C1194   1.517       .  S
C1187      C1188   1.402       .  A
C1188      C2853   1.395       .  A
C1188      H1193   1.083       .  S
C1189      C2852   1.401       .  A
C1189      C1190   1.412   1_655  A
C1190      C1191   1.518       .  S
C1191      F1195   1.384       .  S
C1191      F1196   1.381       .  S
C1191      F1197   1.383       .  S
C1194      F1198   1.380       .  S
C1194      F1199   1.384       .  S
C1194      F1200   1.385       .  S
C1201      C1202   1.397   1_455  A
C1201      C1206   1.406       .  A
C1201      H1208   1.084       .  S
C1202      C2867   1.414       .  A
C1203      C1210   1.520       .  S
C1203      C2866   1.415       .  A
C1203      C1204   1.405       .  A
C1204      C1205   1.406       .  A
C1204      H1209   1.083       .  S
C1205      C2870   1.418       .  A
C1206      C1207   1.513       .  S
C1206      C2869   1.424   1_455  A
C1207      F1211   1.384       .  S
C1207      F1212   1.384       .  S
C1207      F1213   1.382       .  S
C1210      F1214   1.385       .  S
C1210      F1215   1.382       .  S
C1210      F1216   1.381       .  S
C1217      C1218   1.409       .  A
C1217      C1222   1.397       .  A
C1217      H1224   1.079       .  S
C1219      C1226   1.520       .  S
C1219      C1220   1.405       .  A
C1220      H1225   1.083       .  S
C1221      C1222   1.406       .  A
C1222      C1223   1.521       .  S
C1223      F1227   1.384       .  S
C1223      F1228   1.383       .  S
C1226      F1231   1.383       .  S
C1226      F1232   1.385       .  S
C1233      C1234   1.407   1_565  A
C1233      C1238   1.408       .  A
C1233      H1240   1.083       .  S
C1235      C1242   1.521       .  S
C1235      C1236   1.403       .  A
C1236      H1241   1.083       .  S
C1237      C1238   1.415   1_545  A
C1238      C1239   1.521       .  S
C1239      F1245   1.381       .  S
C1242      F1246   1.384       .  S
C1249      C1250   1.405       .  A
C1249      C1254   1.408       .  A
C1249      H1256   1.085       .  S
C1250      C1251   1.418       .  A
C1251      C1258   1.521       .  S
C1251      C1252   1.404       .  A
C1252      C1253   1.405       .  A
C1253      C1254   1.420       .  A
C1254      C1255   1.521       .  S
C1255      F1261   1.383       .  S
C1258      F1263   1.381       .  S
C1258      F1264   1.384       .  S
C1265      C1266   1.401       .  A
C1265      C1270   1.401       .  A
C1265      H1272   1.085       .  S
C1267      C1274   1.519       .  S
C1267      C1268   1.400       .  A
C1268      H1273   1.084       .  S
C1269      C1270   1.415       .  A
C1270      C1271   1.516       .  S
C1271      F1275   1.384       .  S
C1271      F1276   1.382       .  S
C1271      F1277   1.383       .  S
C1274      F1278   1.381       .  S
C1274      F1279   1.383       .  S
C1274      F1280   1.385       .  S
C1281      C1282   1.407       .  A
C1281      C1286   1.398       .  A
C1281      H1288   1.084       .  S
C1282      C2947   1.423       .  A
C1283      C1290   1.519       .  S
C1283      C2946   1.423       .  A
C1283      C1284   1.409       .  A
C1284      C1285   1.401       .  A
C1284      H1289   1.083       .  S
C1285      C2950   1.413   1_455  A
C1286      C1287   1.519       .  S
C1286      C2949   1.411       .  A
C1287      F1291   1.385       .  S
C1287      F1292   1.383       .  S
C1287      F1293   1.382       .  S
C1290      F1294   1.384       .  S
C1290      F1295   1.381       .  S
C1290      F1296   1.385       .  S
C1297      C2962   1.406   1_455  A
C1297      C1302   1.409       .  A
C1297      H1304   1.083       .  S
C1298      C2961   1.404       .  A
C1298      C1299   1.417       .  A
C1299      C1306   1.520       .  S
C1299      C1300   1.405       .  A
C1300      C2965   1.404       .  A
C1300      H1305   1.083       .  S
C1301      C2964   1.402       .  A
C1301      C1302   1.416   1_655  A
C1302      C1303   1.520       .  S
C1303      F1307   1.384       .  S
C1303      F1308   1.381       .  S
C1303      F1309   1.383       .  S
C1306      F1310   1.381       .  S
C1306      F1311   1.384       .  S
C1306      F1312   1.384       .  S
C1313      C1314   1.424       .  A
C1313      C1318   1.407       .  A
C1313      H1320   1.073       .  S
C1314      C1315   1.459       .  A
C1315      C1322   1.536       .  S
C1315      C1316   1.416       .  A
C1316      C1317   1.392       .  A
C1316      H1321   1.083       .  S
C1317      C1318   1.405       .  A
C1318      C1319   1.520       .  S
C1319      F1323   1.385       .  S
C1319      F1324   1.383       .  S
C1319      F1325   1.383       .  S
C1322      F1326   1.381       .  S
C1322      F1327   1.374       .  S
C1322      F1328   1.386       .  S
C1329      C1330   1.399       .  A
C1329      C1334   1.413       .  A
C1329      H1336   1.084       .  S
C1330      C1331   1.409       .  A
C1331      C1338   1.528       .  S
C1331      C1332   1.401       .  A
C1332      C1333   1.428       .  A
C1332      H1337   1.067       .  S
C1333      C2816   1.598       .  S
C1333      C1334   1.453       .  A
C1334      C1335   1.530       .  S
C1335      F1339   1.384       .  S
C1335      F1340   1.385       .  S
C1335      F1341   1.368       .  S
C1338      F1342   1.383       .  S
C1338      F1343   1.384       .  S
C1338      F1344   1.385       .  S
C1345      C1346   1.406       .  A
C1345      C1350   1.403       .  A
C1345      H1352   1.083       .  S
C1346      C1347   1.419       .  A
C1347      C1354   1.513       .  S
C1347      C1348   1.402       .  A
C1348      C1349   1.396       .  A
C1348      H1353   1.084       .  S
C1349      C1350   1.414       .  A
C1350      C1351   1.519       .  S
C1351      F1355   1.382       .  S
C1351      F1356   1.385       .  S
C1351      F1357   1.383       .  S
C1354      F1358   1.384       .  S
C1354      F1359   1.382       .  S
C1354      F1360   1.384       .  S
C1361      C1362   1.400       .  A
C1361      C1366   1.404       .  A
C1361      H1368   1.083       .  S
C1362      C1363   1.415       .  A
C1363      C1370   1.520       .  S
C1363      C1364   1.409       .  A
C1364      C1365   1.407       .  A
C1364      H1369   1.082       .  S
C1365      C1366   1.423       .  A
C1366      C1367   1.522       .  S
C1367      F1371   1.385       .  S
C1367      F1372   1.380       .  S
C1367      F1373   1.383       .  S
C1370      F1374   1.383       .  S
C1370      F1375   1.384       .  S
C1370      F1376   1.381       .  S
C1377      C1378   1.399       .  A
C1377      C1382   1.410       .  A
C1377      H1384   1.083       .  S
C1378      C1379   1.412       .  A
C1379      C1386   1.518       .  S
C1379      C1380   1.407       .  A
C1380      C1381   1.409       .  A
C1380      H1385   1.081       .  S
C1381      C1382   1.429       .  A
C1382      C1383   1.518       .  S
C1383      F1387   1.385       .  S
C1383      F1388   1.382       .  S
C1383      F1389   1.382       .  S
C1386      F1390   1.383       .  S
C1386      F1391   1.382       .  S
C1386      F1392   1.384       .  S
C1393      C1394   1.399       .  A
C1393      C1398   1.403       .  A
C1393      H1400   1.084       .  S
C1394      C1395   1.412       .  A
C1395      C1402   1.520       .  S
C1395      C1396   1.400       .  A
C1396      C1397   1.408       .  A
C1396      H1401   1.084       .  S
C1397      C1398   1.422       .  A
C1398      C1399   1.519       .  S
C1399      F1403   1.384       .  S
C1399      F1404   1.383       .  S
C1399      F1405   1.384       .  S
C1402      F1406   1.383       .  S
C1402      F1407   1.382       .  S
C1402      F1408   1.383       .  S
C1409      C3074   1.425   1_455  A
C1409      C1414   1.419       .  A
C1409      H1416   1.075       .  S
C1410      C2533   1.610       .  S
C1410      C3073   1.423       .  A
C1410      C1411   1.462       .  A
C1411      C1418   1.535       .  S
C1411      C1412   1.412       .  A
C1412      C1413   1.390       .  A
C1412      H1417   1.083       .  S
C1413      C3078   1.410       .  A
C1414      C1415   1.519       .  S
C1414      C3077   1.416       .  A
C1415      F1419   1.385       .  S
C1415      F1420   1.383       .  S
C1415      F1421   1.382       .  S
C1418      F1422   1.376       .  S
C1418      F1423   1.371       .  S
C1418      F1424   1.387       .  S
C1425      C1426   1.385       .  A
C1425      C1430   1.412       .  A
C1425      H1432   1.083       .  S
C1426      C3091   1.406       .  A
C1427      C1434   1.517       .  S
C1427      C3090   1.407       .  A
C1427      C1428   1.414       .  A
C1428      C3093   1.427       .  A
C1428      H1433   1.075       .  S
C1429      C2533   1.599       .  S
C1429      C3092   1.430       .  A
C1429      C1430   1.457       .  A
C1430      C1431   1.531       .  S
C1431      F1435   1.386       .  S
C1431      F1436   1.369       .  S
C1431      F1437   1.375       .  S
C1434      F1438   1.383   1_655  S
C1434      F1439   1.383       .  S
C1434      F1440   1.384       .  S
C1441      C1442   1.418       .  A
C1441      C1446   1.413       .  A
C1441      H1448   1.075       .  S
C1442      C1443   1.450       .  A
C1443      C1450   1.531       .  S
C1443      C1444   1.408       .  A
C1444      C1445   1.397       .  A
C1444      H1449   1.085       .  S
C1445      C1446   1.420       .  A
C1446      C1447   1.520       .  S
C1447      F1451   1.385       .  S
C1447      F1452   1.383       .  S
C1447      F1453   1.383       .  S
C1450      F1454   1.382       .  S
C1450      F1455   1.370       .  S
C1450      F1456   1.387       .  S
C1457      C1458   1.392       .  A
C1457      C1462   1.415       .  A
C1457      H1464   1.085       .  S
C1458      C1459   1.399       .  A
C1459      C1466   1.519       .  S
C1459      C1460   1.403       .  A
C1460      C1461   1.430       .  A
C1460      H1465   1.078       .  S
C1461      C2533   1.583       .  S
C1461      C1462   1.459       .  A
C1462      C1463   1.528       .  S
C1463      F1467   1.387       .  S
C1463      F1468   1.365       .  S
C1463      F1469   1.382       .  S
C1466      F1470   1.383       .  S
C1466      F1471   1.383       .  S
C1466      F1472   1.385       .  S
C1473      C1474   1.389       .  A
C1473      C1478   1.413       .  A
C1473      H1480   1.083       .  S
C1474      C1475   1.408       .  A
C1475      C1482   1.518       .  S
C1475      C1476   1.410       .  A
C1476      C1477   1.419       .  A
C1476      H1481   1.076       .  S
C1477      C1478   1.453       .  A
C1479      F1483   1.386       .  S
C1479      F1484   1.368   1_545  S
C1482      F1487   1.382       .  S
C1482      F1488   1.384       .  S
C1489      C1490   1.391       .  A
C1489      C1494   1.415       .  A
C1489      H1496   1.082       .  S
C1491      C1498   1.524       .  S
C1491      C1492   1.405       .  A
C1492      H1497   1.072       .  S
C1493      C1494   1.461       .  A
C1494      C1495   1.536       .  S
C1495      F1499   1.386       .  S
C1495      F1501   1.372       .  S
C1498      F1502   1.384       .  S
C1498      F1504   1.385       .  S
C1505      C1506   1.432       .  A
C1505      C1510   1.403       .  A
C1505      H1512   1.083       .  S
C1506      C1507   1.461       .  A
C1507      C1514   1.535       .  S
C1507      C1508   1.423       .  A
C1508      C1509   1.395       .  A
C1508      H1513   1.082       .  S
C1509      C1510   1.404       .  A
C1510      C1511   1.521       .  S
C1511      F1515   1.382       .  S
C1511      F1516   1.384       .  S
C1511      F1517   1.383       .  S
C1514      F1518   1.373       .  S
C1514      F1519   1.379       .  S
C1514      F1520   1.386       .  S
C1521      C1522   1.422       .  A
C1521      C1526   1.410       .  A
C1521      H1528   1.077       .  S
C1522      C1523   1.458       .  A
C1523      C1530   1.534       .  S
C1523      C1524   1.412       .  A
C1524      C1525   1.399       .  A
C1524      H1529   1.085       .  S
C1525      C1526   1.416       .  A
C1526      C1527   1.521       .  S
C1527      F1531   1.385       .  S
C1527      F1532   1.383       .  S
C1527      F1533   1.383       .  S
C1530      F1534   1.382       .  S
C1530      F1535   1.365       .  S
C1530      F1536   1.387       .  S
C1537      C1538   1.398       .  A
C1537      C1542   1.405       .  A
C1537      H1544   1.083       .  S
C1538      C1539   1.410       .  A
C1539      C1546   1.520       .  S
C1539      C1540   1.402       .  A
C1540      C1541   1.407       .  A
C1540      H1545   1.077       .  S
C1541      C1542   1.426       .  A
C1542      C1543   1.522       .  S
C1543      F1547   1.385       .  S
C1543      F1548   1.381       .  S
C1543      F1549   1.384       .  S
C1546      F1550   1.382       .  S
C1546      F1551   1.382       .  S
C1546      F1552   1.384       .  S
C1553      C1554   1.397       .  A
C1553      C1558   1.401       .  A
C1553      H1560   1.083       .  S
C1554      C1555   1.408       .  A
C1555      C1562   1.518       .  S
C1555      C1556   1.404       .  A
C1556      C1557   1.412       .  A
C1556      H1561   1.082       .  S
C1557      C1558   1.424       .  A
C1558      C1559   1.517       .  S
C1559      F1563   1.385       .  S
C1559      F1564   1.384       .  S
C1559      F1565   1.382       .  S
C1562      F1566   1.383       .  S
C1562      F1567   1.382       .  S
C1562      F1568   1.385       .  S
C1569      C1570   1.401       .  A
C1569      C1574   1.411       .  A
C1569      H1576   1.083       .  S
C1570      C1571   1.413       .  A
C1571      C1578   1.520       .  S
C1571      C1572   1.403       .  A
C1572      C1573   1.409       .  A
C1572      H1577   1.082       .  S
C1573      C1574   1.425       .  A
C1574      C1575   1.518       .  S
C1575      F1579   1.384       .  S
C1575      F1580   1.383       .  S
C1575      F1581   1.383       .  S
C1578      F1582   1.383       .  S
C1578      F1583   1.383       .  S
C1578      F1584   1.384       .  S
C1585      C1586   1.399       .  A
C1585      C1590   1.406       .  A
C1585      H1592   1.084       .  S
C1586      C1587   1.409       .  A
C1587      C1594   1.518       .  S
C1587      C1588   1.406       .  A
C1588      C1589   1.410       .  A
C1588      H1593   1.082       .  S
C1589      C1590   1.422       .  A
C1590      C1591   1.517       .  S
C1591      F1595   1.385       .  S
C1591      F1596   1.383       .  S
C1591      F1597   1.382       .  S
C1594      F1598   1.382       .  S
C1594      F1599   1.384       .  S
C1594      F1600   1.383       .  S
C1601      C1606   1.417       .  A
C1601      H1608   1.084       .  S
C1602      C1603   1.396       .  A
C1603      C1610   1.519       .  S
C1603      C1604   1.399       .  A
C1604      C1605   1.431       .  A
C1604      H1609   1.080       .  S
C1606      C1607   1.533       .  S
C1607      F1611   1.386       .  S
C1607      F1613   1.380       .  S
C1610      F1614   1.384       .  S
C1610      F1616   1.385       .  S
C1617      C1622   1.413       .  A
C1617      H1624   1.072       .  S
C1618      C1619   1.451       .  A
C1619      C1626   1.532       .  S
C1619      C1620   1.407       .  A
C1620      C1621   1.395   1_565  A
C1620      H1625   1.085       .  S
C1622      C1623   1.520       .  S
C1623      F1627   1.385       .  S
C1623      F1629   1.383       .  S
C1626      F1630   1.381       .  S
C1626      F1632   1.387       .  S
C1633      C1634   1.422       .  A
C1633      C1638   1.409       .  A
C1633      H1640   1.069       .  S
C1634      C1635   1.464       .  A
C1635      C1642   1.539       .  S
C1635      C1636   1.414       .  A
C1636      C1637   1.391       .  A
C1636      H1641   1.084       .  S
C1637      C1638   1.410       .  A
C1638      C1639   1.520       .  S
C1639      F1643   1.385       .  S
C1639      F1644   1.384       .  S
C1639      F1645   1.382       .  S
C1642      F1646   1.378       .  S
C1642      F1647   1.368       .  S
C1642      F1648   1.387       .  S
C1649      C1650   1.385       .  A
C1649      C1654   1.411       .  A
C1649      H1656   1.083       .  S
C1650      C1651   1.404       .  A
C1651      C1658   1.519       .  S
C1651      C1652   1.408       .  A
C1652      C1653   1.427       .  A
C1652      H1657   1.074       .  S
C1653      C1654   1.458       .  A
C1654      C1655   1.532       .  S
C1655      F1659   1.386       .  S
C1655      F1660   1.366       .  S
C1655      F1661   1.378       .  S
C1658      F1662   1.383       .  S
C1658      F1663   1.383       .  S
C1658      F1664   1.385       .  S
C1665      C2437   1.577       .  S
C1665      C2450   1.580       .  S
C1665      C3298   1.614       .  S
C1665      C2485   1.605       .  S
N1666      C1671   1.350   1_554  A
N1666      C1670   1.345       .  A
N1666      H1698   1.042       .  S
N1667      C1675   1.353       .  A
N1668      C1673   1.350       .  A
N1668      C1672   1.348   1_556  A
N1668      H1699   1.030       .  S
N1669      C1677   1.351   1_455  A
C1670      C1678   1.390       .  A
C1670      C1686   1.419       .  A
C1671      C1687   1.417       .  A
C1671      C1679   1.385       .  A
C1672      C1680   1.391       .  A
C1672      C1689   1.421       .  A
C1673      C1688   1.415       .  A
C1673      C1681   1.384       .  A
C1674      C1686   1.419       .  A
C1674      C1682   1.387       .  A
C1675      C1689   1.424       .  A
C1675      C1683   1.389       .  A
C1676      C1684   1.386       .  A
C1676      C1687   1.401       .  A
C1677      C1685   1.385       .  A
C1677      C1688   1.400       .  A
C1678      C1679   1.389   1_554  A
C1678      H1690   1.082       .  S
C1679      H1691   1.082       .  S
C1680      C1681   1.388   1_554  A
C1680      H1692   1.082       .  S
C1681      H1693   1.082       .  S
C1682      H1694   1.082       .  S
C1683      H1695   1.082       .  S
C1684      H1696   1.083       .  S
C1685      H1697   1.083       .  S
C1686      C2370   1.486       .  S
C1687      C2402   1.490       .  S
C1688      C2418   1.482       .  S
C1689      C2386   1.487       .  S
C1700      C2309   1.582   1_565  S
C1700      C2325   1.618       .  S
C1700      C2338   1.610   1_565  S
C1700      C3186   1.594       .  S
C1701      C2274   1.587       .  S
N1702      C1707   1.349       .  A
N1702      C1706   1.354   1_556  A
N1702      H1734   1.041   1_556  S
N1703      C2542   1.350       .  A
N1703      C1711   1.349   1_565  A
N1704      C1709   1.351       .  A
N1704      C1708   1.353   1_556  A
N1704      H1735   1.040       .  S
N1705      C2544   1.351       .  A
N1705      C1713   1.352   1_565  A
C1706      C1714   1.386       .  A
C1706      C1722   1.414       .  A
C1707      C1723   1.412       .  A
C1707      C1715   1.387       .  A
C1708      C1716   1.387       .  A
C1708      C1725   1.415       .  A
C1709      C1724   1.414       .  A
C1709      C1717   1.387       .  A
C1710      N2535   1.350       .  A
C1710      C1722   1.412       .  A
C1710      C1718   1.387       .  A
C1711      C1725   1.410       .  A
C1711      C1719   1.386       .  A
C1712      N2537   1.349       .  A
C1712      C1720   1.388       .  A
C1712      C1723   1.412       .  A
C1713      C1721   1.387       .  A
C1713      C1724   1.413       .  A
C1714      C1715   1.383   1_554  A
C1714      H1726   1.082       .  S
C1715      H1727   1.082       .  S
C1716      C1717   1.381   1_554  A
C1716      H1728   1.082       .  S
C1717      H1729   1.082       .  S
C1718      C2551   1.370       .  A
C1718      H1730   1.082       .  S
C1719      C2550   1.372   1_545  A
C1719      H1731   1.082       .  S
C1720      C2553   1.370       .  A
C1720      H1732   1.082       .  S
C1721      C2552   1.366   1_545  A
C1721      H1733   1.082       .  S
C1722      C2194   1.495       .  S
C1723      C2226   1.481       .  S
C1724      C2210   1.486       .  S
C1725      C2181   1.488       .  S
N1736      N1737   1.322       .  A
N1736      N1742   1.314       .  A
N1736     Mn1765   2.209       .  S
N1737      C1744   1.355       .  A
N1738      N1740   1.315       .  A
N1738      N1739   1.322       .  A
N1738     Mn1754   2.227       .  S
N1739      C1745   1.360       .  A
N1740      N1741   1.324       .  A
N1740     Mn1765   2.205       .  S
N1741      C1745   1.353       .  A
N1742      N1743   1.317       .  A
N1742     Mn1754   2.185       .  S
N1743      C1744   1.351       .  A
C1744      C2229   1.487       .  S
C1745      C2357   1.507       .  S
N1746      N1752   1.318       .  A
N1746      N1747   1.320       .  A
N1746     Mn1776   2.215       .  S
N1747      C1755   1.353       .  A
N1748      N1749   1.319       .  A
N1748      N1750   1.313       .  A
N1748     Mn1754   2.206       .  S
N1749      C1756   1.352       .  A
N1750      N1751   1.323       .  A
N1750     Mn1776   2.203       .  S
N1751      C1756   1.357       .  A
N1752      N1753   1.320       .  A
N1752     Mn1754   2.203       .  S
N1753      C1755   1.353       .  A
Mn1754    Cl1778   2.548       .  S
C1755      C2290   1.472       .  S
C1756      C2421   1.499       .  S
N1757      N1758   1.319       .  A
N1757      N1763   1.317       .  A
N1757     Mn1765   2.204       .  S
N1758      C1766   1.354       .  A
N1759      N1761   1.312       .  A
N1759      N1760   1.326       .  A
N1759     Mn1777   2.217       .  S
N1760      C1767   1.358       .  A
N1761      N1762   1.316       .  A
N1761     Mn1765   2.188       .  S
N1762      C1767   1.353       .  A
N1763      N1764   1.320       .  A
N1763     Mn1777   2.213       .  S
N1764      C1766   1.354       .  A
Mn1765    Cl1778   2.548       .  S
C1766      C2277   1.490       .  S
C1767      C2405   1.503       .  S
N1768      N1769   1.322       .  A
N1768      N1774   1.314       .  A
N1768     Mn1776   2.211       .  S
N1769      C1779   1.356       .  A
N1770      N1771   1.323       .  A
N1770      N1772   1.317       .  A
N1770     Mn1777   2.224       .  S
N1771      C1780   1.355       .  A
N1772      N1773   1.323       .  A
N1772     Mn1776   2.215       .  S
N1773      C1780   1.354       .  A
N1774      N1775   1.317       .  A
N1774     Mn1777   2.191       .  S
N1775      C1779   1.353       .  A
Mn1776    Cl1778   2.552       .  S
Mn1777    Cl1778   2.552       .  S
C1779      C2213   1.496       .  S
C1780      C2341   1.487       .  S
N1781      N1782   1.321       .  A
N1781      N1787   1.319       .  A
N1781     Mn1810   2.211       .  S
N1782      C1789   1.351       .  A
N1783      N1785   1.314       .  A
N1783      N1784   1.318       .  A
N1783     Mn1799   2.185       .  S
N1784      C1790   1.348       .  A
N1785      N1786   1.324       .  A
N1785     Mn1810   2.225       .  S
N1786      C1790   1.360       .  A
N1787      N1788   1.323       .  A
N1787     Mn1799   2.211       .  S
N1788      C1789   1.353       .  A
C1789      C2482   1.478       .  S
C1790      C2197   1.487       .  S
N1791      N1797   1.313       .  A
N1791      N1792   1.320       .  A
N1791     Mn1821   2.200       .  S
N1792      C1800   1.355       .  A
N1793      N1794   1.321       .  A
N1793      N1795   1.318       .  A
N1793     Mn1799   2.211       .  S
N1794      C1801   1.356       .  A
N1795      N1796   1.320       .  A
N1795     Mn1821   2.213       .  S
N1796      C1801   1.354       .  A
N1797      N1798   1.321       .  A
N1797     Mn1799   2.197       .  S
N1798      C1800   1.352       .  A
Mn1799    Cl1823   2.555       .  S
C1800      C2389   1.496       .  S
C1801      C2162   1.491       .  S
N1802      N1803   1.318       .  A
N1802      N1808   1.313       .  A
N1802     Mn1810   2.190       .  S
N1803      C1811   1.351       .  A
N1804      N1806   1.320       .  A
N1804      N1805   1.319       .  A
N1804     Mn1822   2.206       .  S
N1805      C1812   1.351       .  A
N1806      N1807   1.323       .  A
N1806     Mn1810   2.226       .  S
N1807      C1812   1.354       .  A
N1808      N1809   1.323       .  A
N1808     Mn1822   2.212       .  S
N1809      C1811   1.358       .  A
Mn1810    Cl1823   2.550       .  S
C1811      C2373   1.499       .  S
C1812      C2149   1.477       .  S
N1813      N1814   1.325       .  A
N1813      N1819   1.318       .  A
N1813     Mn1821   2.225       .  S
N1814      C1824   1.357       .  A
N1815      N1816   1.317       .  A
N1815      N1817   1.313       .  A
N1815     Mn1822   2.187       .  S
N1816      C1825   1.350       .  A
N1817      N1818   1.322       .  A
N1817     Mn1821   2.202       .  S
N1818      C1825   1.356       .  A
N1819      N1820   1.325       .  A
N1819     Mn1822   2.229       .  S
N1820      C1824   1.356       .  A
Mn1821    Cl1823   2.554       .  S
Mn1822    Cl1823   2.552       .  S
C1824      C2469   1.505       .  S
C1825      C2178   1.486       .  S
N1826      N1827   1.322       .  A
N1826      N2664   1.319   1_545  A
N1826     Mn1855   2.215       .  S
N1827      C1834   1.355       .  A
N1828      N2662   1.312       .  A
N1828      N1829   1.327       .  A
N1828     Mn1844   2.221       .  S
N1829      C2667   1.362       .  A
N1830      N2660   1.313   1_545  A
N1830      N1831   1.319       .  A
N1830     Mn1855   2.194       .  S
N1831      C1835   1.352   1_545  A
N1832      N2658   1.320       .  A
N1832      N1833   1.321       .  A
N1832     Mn1844   2.229       .  S
N1833      C2666   1.357       .  A
C1834      N2665   1.354   1_545  A
C1834      C2322   1.487       .  S
C1835      N2661   1.353       .  A
C1835      C2082   1.485       .  S
N1836      N1837   1.324       .  A
N1836     Mn1866   2.221       .  S
N1837      C1845   1.355       .  A
N1838      N1839   1.324       .  A
N1838     Mn1844   2.231       .  S
N1840      N1841   1.322       .  A
N1840     Mn1866   2.206       .  S
N1841      C1846   1.352       .  A
N1842      N1843   1.321       .  A
N1842     Mn1844   2.207       .  S
C1845      C2130   1.492       .  S
C1846      C2258   1.478       .  S
N1847      N1848   1.319       .  A
N1847     Mn1855   2.202       .  S
N1849      N1850   1.318       .  A
N1849     Mn1867   2.203       .  S
N1850      C1857   1.353   1_655  A
N1851      N1852   1.323       .  A
N1851     Mn1855   2.216       .  S
N1853      N1854   1.316       .  A
N1853     Mn1867   2.179       .  S
N1854      C1856   1.351   1_655  A
C1856      C2114   1.482       .  S
C1857      C2245   1.489       .  S
N1858      N1859   1.325       .  A
N1858      N2696   1.322       .  A
N1858     Mn1866   2.240       .  S
N1859      C2701   1.357       .  A
N1860      N1861   1.319       .  A
N1860      N2694   1.313   1_545  A
N1860     Mn1867   2.186       .  S
N1861      C1870   1.351       .  A
N1862      N2692   1.311       .  A
N1862      N1863   1.317       .  A
N1862     Mn1866   2.171       .  S
N1863      C2702   1.348       .  A
N1864      N2690   1.318   1_545  A
N1864      N1865   1.320       .  A
N1864     Mn1867   2.198       .  S
N1865      C1869   1.350       .  A
Mn1866    Cl2700   2.553       .  S
Mn1867    Cl1868   2.542       .  S
Cl1868    Mn2698   2.550   1_545  S
C1869      N2691   1.353   1_545  A
C1869      C2306   1.472       .  S
C1870      N2695   1.352   1_545  A
C1870      C2098   1.482       .  S
N1871      N1872   1.322       .  A
N1871     Mn1900   2.220       .  S
N1872      C1879   1.357   1_655  A
N1873      N1874   1.320       .  A
N1873     Mn1889   2.209       .  S
N1875      N1876   1.322       .  A
N1875     Mn1900   2.206       .  S
N1876      C1880   1.356   1_655  A
N1877      N1878   1.318       .  A
N1877     Mn1889   2.198       .  S
C1879      C1989   1.499       .  S
C1880      C2037   1.494       .  S
N1881      N2719   1.312   1_545  A
N1881      N1882   1.323       .  A
N1881     Mn1911   2.217       .  S
N1882      C2722   1.358   1_545  A
N1883      N1884   1.322       .  A
N1883      N2717   1.316       .  A
N1883     Mn1889   2.219       .  S
N1884      C1891   1.359       .  A
N1885      N2715   1.317   1_545  A
N1885      N1886   1.316       .  A
N1885     Mn1911   2.195       .  S
N1886      C2723   1.348   1_545  A
N1887      N2713   1.313       .  A
N1887      N1888   1.316       .  A
N1887     Mn1889   2.179       .  S
N1888      C1890   1.350       .  A
C1890      N2714   1.356       .  A
C1890      C2050   1.489       .  S
C1891      N2718   1.349       .  A
C1891      C2453   1.490       .  S
N1892      N1893   1.323       .  A
N1892      N2730   1.314       .  A
N1892     Mn1900   2.202       .  S
N1893      C1901   1.356       .  A
N1894      N2728   1.318   1_545  A
N1894      N1895   1.320       .  A
N1894     Mn1912   2.214       .  S
N1895      C2734   1.354   1_545  A
N1896      N2726   1.318       .  A
N1896      N1897   1.322       .  A
N1896     Mn1900   2.218       .  S
N1897      C1902   1.354       .  A
N1898      N2724   1.312   1_545  A
N1898      N1899   1.318       .  A
N1898     Mn1912   2.184       .  S
N1899      C2733   1.351   1_545  A
Mn1900    Cl1913   2.553       .  S
C1901      N2731   1.351       .  A
C1901      C2066   1.495       .  S
C1902      N2727   1.350       .  A
C1902      C2434   1.475       .  S
N1903      N1904   1.322       .  A
N1903     Mn1911   2.216       .  S
N1905      N1906   1.320       .  A
N1905     Mn1912   2.213       .  S
N1906      C1915   1.356       .  A
N1907      N1908   1.319       .  A
N1907     Mn1911   2.187       .  S
N1909      N1910   1.320       .  A
N1909     Mn1912   2.199       .  S
N1910      C1914   1.351   1_655  A
Mn1912    Cl2745   2.544   1_545  S
Cl1913    Mn2744   2.549       .  S
C1914      C2002   1.469       .  S
C1915      C2018   1.490       .  S
N1916      C1921   1.350       .  A
N1916      C1920   1.349       .  A
N1916      H1948   1.039       .  S
N1917      C1924   1.347       .  A
N1917      C1925   1.347       .  A
N1918      C1923   1.349       .  A
N1918      C1922   1.350       .  A
N1918      H1949   1.039       .  S
N1919      C1926   1.349       .  A
N1919      C1927   1.349       .  A
C1920      C1928   1.386       .  A
C1920      C1936   1.409       .  A
C1921      C1937   1.411       .  A
C1921      C1929   1.387       .  A
C1922      C1930   1.386       .  A
C1922      C1939   1.408       .  A
C1923      C1938   1.411       .  A
C1923      C1931   1.388       .  A
C1924      C1936   1.408       .  A
C1924      C1932   1.388       .  A
C1925      C1939   1.405       .  A
C1925      C1933   1.387       .  A
C1926      C1934   1.387       .  A
C1926      C1937   1.410       .  A
C1927      C1935   1.386       .  A
C1927      C1938   1.410       .  A
C1928      C1929   1.381       .  A
C1928      H1940   1.082       .  S
C1929      H1941   1.082       .  S
C1930      C1931   1.378       .  A
C1930      H1942   1.082       .  S
C1931      H1943   1.082       .  S
C1932      C1933   1.367       .  A
C1932      H1944   1.082       .  S
C1933      H1945   1.082       .  S
C1934      C1935   1.368       .  A
C1934      H1946   1.082       .  S
C1935      H1947   1.082       .  S
C1936      C2133   1.478       .  S
C1937      C2034   1.482       .  S
C1938      C2021   1.478       .  S
C1939      C2117   1.475       .  S
N1950      C1955   1.351       .  A
N1950      C1954   1.350       .  A
N1950      H1982   1.040       .  S
N1951      C1958   1.350       .  A
N1951      C1959   1.349       .  A
N1952      C1957   1.348       .  A
N1952      C1956   1.349   1_565  A
N1952      H1983   1.040       .  S
N1953      C1960   1.349       .  A
N1953      C1961   1.350       .  A
C1954      C1962   1.386       .  A
C1954      C1970   1.410       .  A
C1955      C1971   1.412       .  A
C1955      C1963   1.387       .  A
C1956      C1964   1.386       .  A
C1956      C1973   1.407   1_545  A
C1957      C1972   1.408       .  A
C1957      C1965   1.387   1_565  A
C1958      C1970   1.409       .  A
C1958      C1966   1.386       .  A
C1959      C1973   1.410       .  A
C1959      C1967   1.387       .  A
C1960      C2800   1.387       .  A
C1960      C1971   1.411       .  A
C1961      C2801   1.388       .  A
C1961      C1972   1.412       .  A
C1962      C1963   1.378       .  A
C1962      H1974   1.082   1_565  S
C1963      H1975   1.082   1_565  S
C1964      C1965   1.379       .  A
C1964      H1976   1.082       .  S
C1965      H1977   1.082       .  S
C1966      C1967   1.368       .  A
C1966      H1978   1.082       .  S
C1967      H1979   1.082       .  S
C1968      C2792   1.387       .  A
C1968      C1969   1.367       .  A
C1968      H1980   1.082       .  S
C1969      C2793   1.387       .  A
C1969      H1981   1.082       .  S
C1970      C2085   1.481       .  S
C1971      C2885   1.482       .  S
C1972      C2901   1.478       .  S
C1973      C2101   1.478   1_565  S
C1984      C2146   1.590       .  S
C1985      C1990   1.404       .  A
C1985      H1992   1.070       .  S
C1986      C1987   1.451   1_455  A
C1987      C1994   1.529       .  S
C1987      C1988   1.415       .  A
C1988      C1989   1.399   1_655  A
C1988      H1993   1.084       .  S
C1990      C1991   1.525       .  S
C1991      F1995   1.385       .  S
C1991      F1996   1.382       .  S
C1991      F1997   1.384       .  S
C1994      F1998   1.366       .  S
C1994      F1999   1.383       .  S
C1994      F2000   1.385       .  S
C2001      C2006   1.415       .  A
C2001      H2008   1.083       .  S
C2002      C2003   1.404       .  A
C2003      C2010   1.520       .  S
C2003      C2004   1.404       .  A
C2004      C2005   1.422       .  A
C2004      H2009   1.074       .  S
C2006      C2007   1.538       .  S
C2007      F2011   1.385       .  S
C2007      F2012   1.379       .  S
C2007      F2013   1.376       .  S
C2010      F2014   1.383       .  S
C2010      F2015   1.383   1_455  S
C2010      F2016   1.385       .  S
C2017      C2022   1.403       .  A
C2017      H2024   1.083       .  S
C2018      C2019   1.423       .  A
C2019      C2026   1.512       .  S
C2019      C2020   1.402       .  A
C2020      H2025   1.083       .  S
C2021      C2022   1.413       .  A
C2022      C2023   1.520       .  S
C2023      F2027   1.383       .  S
C2023      F2028   1.382       .  S
C2023      F2029   1.383       .  S
C2026      F2030   1.384       .  S
C2026      F2031   1.383       .  S
C2026      F2032   1.385       .  S
C2033      C2034   1.398       .  A
C2033      C2038   1.405       .  A
C2033      H2040   1.084       .  S
C2035      C2042   1.518       .  S
C2035      C2036   1.406       .  A
C2036      C2037   1.407   1_655  A
C2036      H2041   1.084       .  S
C2038      C2039   1.516       .  S
C2039      F2043   1.385       .  S
C2039      F2044   1.383       .  S
C2039      F2045   1.382       .  S
C2042      F2046   1.381       .  S
C2042      F2047   1.383       .  S
C2042      F2048   1.384       .  S
C2049      C2050   1.410       .  A
C2049      C2054   1.401       .  A
C2049      H2056   1.081       .  S
C2050      C2883   1.421       .  A
C2051      C2058   1.518       .  S
C2051      C2882   1.424   1_545  A
C2051      C2052   1.409       .  A
C2052      C2885   1.401   1_545  A
C2052      H2057   1.083       .  S
C2053      C2884   1.394       .  A
C2053      C2054   1.409       .  A
C2053      C2803   1.477       .  S
C2054      C2055   1.518       .  S
C2055      F2059   1.385       .  S
C2055      F2060   1.383       .  S
C2055      F2893   1.382       .  S
C2058      F2894   1.382       .  S
C2058      F2063   1.383       .  S
C2058      F2064   1.384       .  S
F2061      C2887   1.381       .  S
F2062      C2890   1.382       .  S
C2065      C2066   1.410       .  A
C2065      C2070   1.408       .  A
C2065      H2072   1.082       .  S
C2066      C2899   1.428       .  A
C2067      C2074   1.521       .  S
C2067      C2898   1.420   1_545  A
C2067      C2068   1.401       .  A
C2068      C2901   1.400   1_545  A
C2068      H2073   1.083       .  S
C2069      C2900   1.393       .  A
C2069      C2070   1.411       .  A
C2069      C2804   1.480       .  S
C2070      C2071   1.517       .  S
C2071      F2907   1.384       .  S
C2071      F2908   1.382       .  S
C2071      F2077   1.383       .  S
C2074      F2078   1.382       .  S
C2074      F2911   1.375       .  S
C2074      F2912   1.385       .  S
F2075      C2903   1.385       .  S
F2076      C2903   1.383       .  S
F2079      C2906   1.382       .  S
F2080      C2906   1.385       .  S
C2081      C2082   1.409       .  A
C2081      C2086   1.405       .  A
C2081      H2088   1.083       .  S
C2082      C2083   1.423   1_565  A
C2083      C2090   1.520       .  S
C2083      C2084   1.403       .  A
C2084      C2085   1.399   1_545  A
C2084      H2921   1.083       .  S
C2085      C2086   1.410       .  A
C2086      C2087   1.518       .  S
C2087      F2923   1.383       .  S
C2087      F2924   1.382       .  S
C2087      F2093   1.384       .  S
H2089      C2916   1.083       .  S
C2090      F2926   1.383       .  S
C2090      F2095   1.374       .  S
C2090      F2096   1.385       .  S
F2091      C2919   1.384       .  S
F2092      C2919   1.380       .  S
F2094      C2922   1.383       .  S
C2097      C2098   1.406       .  A
C2097      C2102   1.404       .  A
C2097      H2104   1.083       .  S
C2098      C2931   1.422   1_545  A
C2099      C2106   1.524       .  S
C2099      C2930   1.420       .  A
C2099      C2100   1.401       .  A
C2100      C2933   1.401       .  A
C2100      H2105   1.084       .  S
C2101      C2932   1.397   1_545  A
C2101      C2102   1.412       .  A
C2102      C2103   1.518       .  S
C2103      F2107   1.385       .  S
C2103      F2108   1.382       .  S
C2103      F2109   1.383       .  S
C2106      F2110   1.383       .  S
C2106      F2111   1.378       .  S
C2106      F2112   1.385       .  S
C2113      C2114   1.406   1_655  A
C2113      C2118   1.401       .  A
C2113      H2120   1.085       .  S
C2115      C2122   1.512       .  S
C2115      C2116   1.402       .  A
C2116      C2117   1.395       .  A
C2116      H2121   1.083       .  S
C2118      C2119   1.519       .  S
C2119      F2123   1.384       .  S
C2119      F2124   1.381       .  S
C2119      F2125   1.384       .  S
C2122      F2126   1.384       .  S
C2122      F2127   1.383       .  S
C2122      F2128   1.385       .  S
C2129      C2134   1.402       .  A
C2129      H2136   1.083       .  S
C2130      C2131   1.423       .  A
C2131      C2138   1.514       .  S
C2131      C2132   1.407       .  A
C2132      H2137   1.084       .  S
C2133      C2134   1.412       .  A
C2134      C2135   1.519       .  S
C2135      F2139   1.384       .  S
C2135      F2140   1.382       .  S
C2135      F2141   1.384       .  S
C2138      F2142   1.384       .  S
C2138      F2143   1.376       .  S
C2138      F2144   1.386       .  S
C2145      C2146   1.423       .  A
C2145      C2150   1.407       .  A
C2145      H2152   1.074       .  S
C2146      C2147   1.459       .  A
C2147      C2154   1.535       .  S
C2147      C2148   1.412       .  A
C2148      C2149   1.389       .  A
C2148      H2153   1.083       .  S
C2149      C2150   1.405       .  A
C2150      C2151   1.520       .  S
C2151      F2155   1.384       .  S
C2151      F2156   1.383       .  S
C2151      F2157   1.383       .  S
C2154      F2158   1.381       .  S
C2154      F2159   1.375       .  S
C2154      F2160   1.385       .  S
C2161      C2162   1.398       .  A
C2161      C2166   1.413       .  A
C2161      H2168   1.083       .  S
C2162      C2163   1.407       .  A
C2163      C2170   1.525       .  S
C2163      C2164   1.404       .  A
C2164      C2165   1.429       .  A
C2164      H2169   1.069       .  S
C2165      C2166   1.452       .  A
C2166      C2167   1.532       .  S
C2167      F2171   1.382       .  S
C2167      F2172   1.386       .  S
C2167      F2173   1.369   1_655  S
C2170      F2174   1.383       .  S
C2170      F2175   1.384       .  S
C2170      F2176   1.385       .  S
C2177      C2178   1.404       .  A
C2177      C2182   1.405       .  A
C2177      H2184   1.083       .  S
C2178      C2179   1.424       .  A
C2179      C2186   1.519       .  S
C2179      C2180   1.407       .  A
C2180      C2181   1.399       .  A
C2180      H2185   1.083       .  S
C2181      C2182   1.416       .  A
C2182      C2183   1.519       .  S
C2183      F2187   1.385       .  S
C2183      F2188   1.383       .  S
C2183      F2189   1.382       .  S
C2186      F2190   1.384       .  S
C2186      F2191   1.383       .  S
C2186      F2192   1.384       .  S
C2193      C2194   1.406       .  A
C2193      C2198   1.408       .  A
C2193      H2200   1.083       .  S
C2194      C2195   1.416       .  A
C2195      C2202   1.519       .  S
C2195      C2196   1.407       .  A
C2196      C2197   1.402       .  A
C2196      H2201   1.077       .  S
C2197      C2198   1.420       .  A
C2198      C2199   1.521       .  S
C2199      F2203   1.385       .  S
C2199      F2204   1.380       .  S
C2199      F2205   1.383       .  S
C2202      F2206   1.380       .  S
C2202      F2207   1.383       .  S
C2202      F2208   1.384       .  S
C2209      C2210   1.400       .  A
C2209      C2214   1.409       .  A
C2209      H2216   1.083       .  S
C2210      C2211   1.412       .  A
C2211      C2218   1.522       .  S
C2211      C2212   1.403       .  A
C2212      C2213   1.410       .  A
C2212      H2217   1.080       .  S
C2213      C2214   1.425       .  A
C2214      C2215   1.519       .  S
C2215      F2219   1.385       .  S
C2215      F2220   1.383       .  S
C2215      F2221   1.383       .  S
C2218      F2222   1.382       .  S
C2218      F2223   1.381       .  S
C2218      F2224   1.384       .  S
C2225      C2226   1.400       .  A
C2225      C2230   1.407       .  A
C2225      H2232   1.083       .  S
C2226      C2227   1.412       .  A
C2227      C2234   1.520       .  S
C2227      C2228   1.402       .  A
C2228      C2229   1.408       .  A
C2228      H2233   1.083       .  S
C2229      C2230   1.422       .  A
C2230      C2231   1.517       .  S
C2231      F2235   1.385       .  S
C2231      F2236   1.383       .  S
C2231      F2237   1.380       .  S
C2234      F2238   1.384       .  S
C2234      F2239   1.383       .  S
C2234      F2240   1.381       .  S
C2241      C2246   1.412       .  A
C2241      H2248   1.071       .  S
C2242      C2243   1.461       .  A
C2243      C2250   1.536       .  S
C2243      C2244   1.403       .  A
C2244      C2245   1.388   1_655  A
C2244      H2249   1.085       .  S
C2246      C2247   1.519       .  S
C2247      F2251   1.384       .  S
C2247      F2252   1.383       .  S
C2247      F2253   1.384       .  S
C2250      F2254   1.377       .  S
C2250      F2255   1.364       .  S
C2250      F2256   1.388       .  S
C2257      C2258   1.385       .  A
C2257      C2262   1.412       .  A
C2257      H2264   1.083       .  S
C2259      C2266   1.518       .  S
C2259      C2260   1.416       .  A
C2260      H2265   1.076       .  S
C2261      C2262   1.458       .  A
C2262      C2263   1.532       .  S
C2263      F2267   1.385       .  S
C2263      F2268   1.368   1_655  S
C2263      F2269   1.376       .  S
C2266      F2270   1.383       .  S
C2266      F2271   1.383       .  S
C2266      F2272   1.384       .  S
C2273      C2274   1.419       .  A
C2273      C2278   1.409       .  A
C2273      H2280   1.072       .  S
C2274      C2275   1.453       .  A
C2275      C2282   1.536       .  S
C2275      C2276   1.410       .  A
C2276      C2277   1.397       .  A
C2276      H2281   1.085       .  S
C2277      C2278   1.413       .  A
C2278      C2279   1.521       .  S
C2279      F2283   1.384       .  S
C2279      F2284   1.384       .  S
C2279      F2285   1.383       .  S
C2282      F2286   1.381       .  S
C2282      F2287   1.371       .  S
C2282      F2288   1.387       .  S
C2289      C2290   1.397       .  A
C2289      C2294   1.419       .  A
C2289      H2296   1.083       .  S
C2290      C2291   1.396       .  A
C2291      C2298   1.521       .  S
C2291      C2292   1.399       .  A
C2292      C2293   1.430       .  A
C2292      H2297   1.080       .  S
C2293      C2294   1.459       .  A
C2294      C2295   1.539       .  S
C2295      F2299   1.385       .  S
C2295      F2300   1.369   1_655  S
C2295      F2301   1.379   1_655  S
C2298      F2302   1.383       .  S
C2298      F2303   1.383       .  S
C2298      F2304   1.385       .  S
C2305      C2306   1.389       .  A
C2305      C2310   1.411       .  A
C2305      H2312   1.083       .  S
C2306      C2307   1.407       .  A
C2307      C2314   1.520       .  S
C2307      C2308   1.407       .  A
C2308      C2309   1.421       .  A
C2308      H2313   1.077       .  S
C2309      C2310   1.451       .  A
C2310      C3143   1.530       .  S
C2311      C3142   1.529       .  S
C2311      F2315   1.385       .  S
C2311      F2316   1.368       .  S
C2311      F3149   1.380       .  S
C2314      F3150   1.383   1_545  S
C2314      F2319   1.383       .  S
C2314      F2320   1.385       .  S
F2317      C3143   1.379       .  S
F2318      C3146   1.383       .  S
C2321      C2322   1.394   1_565  A
C2321      C2326   1.417       .  A
C2321      H2328   1.081       .  S
C2322      C3155   1.402       .  A
C2323      C2330   1.524       .  S
C2323      C3154   1.406       .  A
C2323      C2324   1.414       .  A
C2324      C3157   1.438       .  A
C2324      H2329   1.071       .  S
C2325      C3156   1.434   1_565  A
C2325      C2326   1.461       .  A
C2326      C2327   1.539       .  S
C2327      F2331   1.386       .  S
C2327      F3164   1.373       .  S
C2327      F2333   1.372       .  S
C2330      F2334   1.383       .  S
C2330      F3167   1.382       .  S
C2330      F2336   1.385       .  S
F2332      C3159   1.386       .  S
F2335      C3162   1.383       .  S
C2337      C2338   1.436       .  A
C2337      C2342   1.404       .  A
C2337      H2344   1.079       .  S
C2338      C2339   1.457       .  A
C2339      C2346   1.528       .  S
C2339      C2340   1.424       .  A
C2340      C2341   1.396       .  A
C2340      H2345   1.082       .  S
C2341      C2342   1.399       .  A
C2342      C2343   1.519       .  S
C2343      F2347   1.385       .  S
C2343      F2348   1.383       .  S
C2343      F2349   1.383       .  S
C2346      F2350   1.374   1_545  S
C2346      F2351   1.379   1_545  S
C2346      F2352   1.385       .  S
C2353      C2354   1.422       .  A
C2353      C2358   1.421       .  A
C2353      H2360   1.079       .  S
C2354      C2532   1.596       .  S
C2354      C2355   1.456       .  A
C2355      C2362   1.532       .  S
C2355      C2356   1.407       .  A
C2356      C2357   1.395       .  A
C2356      H2361   1.085       .  S
C2357      C2358   1.423       .  A
C2358      C2359   1.520       .  S
C2359      F2363   1.385       .  S
C2359      F2364   1.383       .  S
C2359      F2365   1.383       .  S
C2362      F2366   1.382       .  S
C2362      F2367   1.365       .  S
C2362      F2368   1.387       .  S
C2369      C2370   1.397       .  A
C2369      C2374   1.408       .  A
C2369      H2376   1.083       .  S
C2370      C2371   1.412       .  A
C2371      C2378   1.520       .  S
C2371      C2372   1.407       .  A
C2372      C2373   1.409       .  A
C2372      H2377   1.081       .  S
C2373      C2374   1.430       .  A
C2374      C2375   1.519       .  S
C2375      F2379   1.385       .  S
C2375      F2380   1.377       .  S
C2375      F2381   1.383       .  S
C2378      F2382   1.383       .  S
C2378      F2383   1.382       .  S
C2378      F2384   1.384       .  S
C2385      C2386   1.401       .  A
C2385      C2390   1.409       .  A
C2385      H2392   1.083       .  S
C2386      C2387   1.413       .  A
C2387      C2394   1.515       .  S
C2387      C2388   1.402       .  A
C2388      C2389   1.407       .  A
C2388      H2393   1.084       .  S
C2389      C2390   1.427       .  A
C2390      C2391   1.517       .  S
C2391      F2395   1.385       .  S
C2391      F2396   1.382       .  S
C2391      F2397   1.381       .  S
C2394      F2398   1.383       .  S
C2394      F2399   1.382       .  S
C2394      F2400   1.384       .  S
C2401      C2402   1.404       .  A
C2401      C2406   1.417       .  A
C2401      H2408   1.083       .  S
C2402      C2403   1.414       .  A
C2403      C2410   1.520       .  S
C2403      C2404   1.402       .  A
C2404      C2405   1.407       .  A
C2404      H2409   1.079       .  S
C2405      C2406   1.425       .  A
C2406      C2407   1.515       .  S
C2407      F2411   1.384       .  S
C2407      F2412   1.381       .  S
C2407      F2413   1.383       .  S
C2410      F2414   1.383       .  S
C2410      F2415   1.381       .  S
C2410      F2416   1.384       .  S
C2417      C2418   1.397       .  A
C2417      C2422   1.406       .  A
C2417      H2424   1.083       .  S
C2418      C2419   1.412       .  A
C2419      C2426   1.517       .  S
C2419      C2420   1.410       .  A
C2420      C2421   1.411       .  A
C2420      H2425   1.082       .  S
C2421      C2422   1.428       .  A
C2422      C2423   1.518       .  S
C2423      F2427   1.385       .  S
C2423      F2428   1.381       .  S
C2423      F2429   1.383       .  S
C2426      F2430   1.385       .  S
C2426      F2431   1.382       .  S
C2426      F2432   1.383       .  S
C2433      C3266   1.393       .  A
C2433      C2438   1.416       .  A
C2433      H2440   1.084       .  S
C2434      C3265   1.396       .  A
C2434      C2435   1.396       .  A
C2435      C2442   1.518       .  S
C2435      C2436   1.397       .  A
C2436      C2437   1.427       .  A
C2436      H2441   1.081       .  S
C2437      C3270   1.463       .  A
C2438      C2439   1.533       .  S
C2438      C3269   1.461       .  A
C2439      F2443   1.387       .  S
C2439      F3276   1.366       .  S
C2439      F2445   1.379   1_565  S
C2442      F2446   1.383       .  S
C2442      F3279   1.383       .  S
C2442      F2448   1.384       .  S
F2444      C3271   1.366       .  S
F2447      C3274   1.383   1_545  S
C2449      C3282   1.414   1_545  A
C2449      C2454   1.414       .  A
C2449      H2456   1.071       .  S
C2450      C3281   1.418       .  A
C2450      C2451   1.448       .  A
C2451      C2458   1.531       .  S
C2451      C2452   1.410       .  A
C2452      C2453   1.398       .  A
C2452      H2457   1.085       .  S
C2453      C3286   1.418       .  A
C2454      C2455   1.523       .  S
C2454      C3285   1.423   1_545  A
C2455      F2459   1.384       .  S
C2455      F3292   1.384       .  S
C2455      F2461   1.383       .  S
C2458      F2462   1.381       .  S
C2458      F3295   1.373       .  S
C2458      F2464   1.387       .  S
F2460      C3287   1.383       .  S
F2463      C3290   1.369       .  S
C2465      C2466   1.420       .  A
C2465      C2470   1.417       .  A
C2465      H2472   1.072       .  S
C2466      C2497   1.618   1_545  S
C2466      C2467   1.462       .  A
C2467      C2474   1.535       .  S
C2467      C2468   1.415       .  A
C2468      C2469   1.392       .  A
C2468      H2473   1.085       .  S
C2469      C2470   1.415       .  A
C2470      C2471   1.518       .  S
C2471      F2475   1.385       .  S
C2471      F2476   1.384       .  S
C2471      F2477   1.382       .  S
C2474      F2478   1.380       .  S
C2474      F2479   1.366       .  S
C2474      F2480   1.387       .  S
C2481      C2482   1.383       .  A
C2481      C2486   1.412       .  A
C2481      H2488   1.083       .  S
C2482      C2483   1.405       .  A
C2483      C2490   1.518       .  S
C2483      C2484   1.411       .  A
C2484      C2485   1.428       .  A
C2484      H2489   1.074       .  S
C2485      C2486   1.460       .  A
C2486      C2487   1.529       .  S
C2487      F2491   1.386       .  S
C2487      F2492   1.365       .  S
C2487      F2493   1.376       .  S
C2490      F2494   1.383       .  S
C2490      F2495   1.383       .  S
C2490      F2496   1.385       .  S
C2497      C3269   1.583       .  S
C2497      C3282   1.593       .  S
C2497      C3317   1.606       .  S
N2498      C2503   1.350   1_554  A
N2498      C2502   1.347       .  A
N2498      H2530   1.036       .  S
N2499      C2507   1.353       .  A
N2500      C2505   1.350       .  A
N2500      C2504   1.349   1_556  A
N2500      H2531   1.036       .  S
N2501      C2509   1.351       .  A
C2502      C2510   1.388       .  A
C2502      C2518   1.414       .  A
C2503      C2519   1.415       .  A
C2503      C2511   1.386       .  A
C2504      C2512   1.392       .  A
C2504      C2521   1.421       .  A
C2505      C2520   1.411       .  A
C2505      C2513   1.383       .  A
C2506      C2518   1.417       .  A
C2506      C2514   1.386       .  A
C2507      C2521   1.423       .  A
C2507      C2515   1.389       .  A
C2508      C2516   1.384       .  A
C2508      C2519   1.399       .  A
C2509      C2517   1.385       .  A
C2509      C2520   1.400       .  A
C2510      C2511   1.386   1_554  A
C2510      H2522   1.082       .  S
C2511      H2523   1.082       .  S
C2512      C2513   1.386   1_554  A
C2512      H2524   1.082       .  S
C2513      H2525   1.082       .  S
C2514      H2526   1.082       .  S
C2515      H2527   1.082       .  S
C2516      H2528   1.083       .  S
C2517      H2529   1.083       .  S
C2518      C3202   1.484       .  S
C2519      C3234   1.486       .  S
C2520      C3250   1.480       .  S
C2521      C3218   1.488       .  S
C2532      C3141   1.593       .  S
C2532      C3157   1.630       .  S
C2532      C3170   1.616       .  S
C2533      C3106   1.585       .  S
N2534      C2539   1.351   1_554  A
N2534      C2538   1.353       .  A
N2534      H2566   1.040   1_554  S
N2535      C2543   1.348       .  A
N2536      C2541   1.351   1_554  A
N2536      C2540   1.348       .  A
N2536      H2567   1.040       .  S
N2537      C2545   1.352       .  A
C2538      C2546   1.387       .  A
C2538      C2554   1.414       .  A
C2539      C2555   1.412       .  A
C2539      C2547   1.386       .  A
C2540      C2548   1.387       .  A
C2540      C2557   1.409       .  A
C2541      C2556   1.410       .  A
C2541      C2549   1.387       .  A
C2542      C2554   1.414       .  A
C2542      C2550   1.387       .  A
C2543      C2557   1.409       .  A
C2543      C2551   1.386       .  A
C2544      C2552   1.387       .  A
C2544      C2555   1.412       .  A
C2545      C2553   1.386       .  A
C2545      C2556   1.412       .  A
C2546      C2547   1.380   1_554  A
C2546      H2558   1.082       .  S
C2547      H2559   1.082       .  S
C2548      C2549   1.378   1_554  A
C2548      H2560   1.082       .  S
C2549      H2561   1.082       .  S
C2550      H2562   1.082       .  S
C2551      H2563   1.082       .  S
C2552      H2564   1.082       .  S
C2553      H2565   1.081       .  S
C2554      C3026   1.493       .  S
C2555      C3058   1.484       .  S
C2556      C3042   1.485       .  S
C2557      C3013   1.478       .  S
N2568      N2569   1.320       .  A
N2568      N2574   1.314       .  A
N2568     Mn2597   2.206       .  S
N2569      C2576   1.353       .  A
N2570      N2572   1.315       .  A
N2570      N2571   1.318       .  A
N2570     Mn2586   2.208       .  S
N2571      C2577   1.356       .  A
N2572      N2573   1.324       .  A
N2572     Mn2597   2.211       .  S
N2573      C2577   1.356       .  A
N2574      N2575   1.320       .  A
N2574     Mn2586   2.193       .  S
N2575      C2576   1.354       .  A
C2576      C3061   1.493       .  S
C2577      C3189   1.502       .  S
N2578      N2584   1.316       .  A
N2578      N2579   1.321       .  A
N2578     Mn2608   2.215       .  S
N2579      C2587   1.356       .  A
N2580      N2581   1.321       .  A
N2580      N2582   1.312       .  A
N2580     Mn2586   2.206       .  S
N2581      C2588   1.354       .  A
N2582      N2583   1.321       .  A
N2582     Mn2608   2.194       .  S
N2583      C2588   1.354       .  A
N2584      N2585   1.320       .  A
N2584     Mn2586   2.203       .  S
N2585      C2587   1.353       .  A
Mn2586    Cl2610   2.549       .  S
C2587      C3122   1.476       .  S
C2588      C3253   1.494       .  S
N2589      N2590   1.320       .  A
N2589      N2595   1.318       .  A
N2589     Mn2597   2.214       .  S
N2590      C2598   1.355       .  A
N2591      N2593   1.314       .  A
N2591      N2592   1.327       .  A
N2591     Mn2609   2.228       .  S
N2592      C2599   1.360       .  A
N2593      N2594   1.316       .  A
N2593     Mn2597   2.189       .  S
N2594      C2599   1.351       .  A
N2595      N2596   1.323       .  A
N2595     Mn2609   2.221       .  S
N2596      C2598   1.355       .  A
Mn2597    Cl2610   2.548       .  S
C2598      C3109   1.496       .  S
C2599      C3237   1.502       .  S
N2600      N2601   1.320       .  A
N2600      N2606   1.314       .  A
N2600     Mn2608   2.197       .  S
N2601      C2611   1.351       .  A
N2602      N2603   1.325       .  A
N2602      N2604   1.318       .  A
N2602     Mn2609   2.237       .  S
N2603      C2612   1.358       .  A
N2604      N2605   1.322       .  A
N2604     Mn2608   2.206       .  S
N2605      C2612   1.352       .  A
N2606      N2607   1.319       .  A
N2606     Mn2609   2.203       .  S
N2607      C2611   1.356       .  A
Mn2608    Cl2610   2.550       .  S
Mn2609    Cl2610   2.558       .  S
C2611      C3045   1.492       .  S
C2612      C3173   1.488       .  S
N2613      N2614   1.322       .  A
N2613      N2619   1.320       .  A
N2613     Mn2642   2.212       .  S
N2614      C2621   1.351       .  A
N2615      N2617   1.315       .  A
N2615      N2616   1.320       .  A
N2615     Mn2631   2.202       .  S
N2616      C2622   1.353       .  A
N2617      N2618   1.319       .  A
N2617     Mn2642   2.195       .  S
N2618      C2622   1.351       .  A
N2619      N2620   1.325       .  A
N2619     Mn2631   2.221       .  S
N2620      C2621   1.354       .  A
C2621      C3314   1.483       .  S
C2622      C3029   1.479       .  S
N2623      N2629   1.312       .  A
N2623      N2624   1.320       .  A
N2623     Mn2653   2.192       .  S
N2624      C2632   1.353       .  A
N2625      N2626   1.322       .  A
N2625      N2627   1.318       .  A
N2625     Mn2631   2.228       .  S
N2626      C2633   1.358       .  A
N2627      N2628   1.321       .  A
N2627     Mn2653   2.210       .  S
N2628      C2633   1.353       .  A
N2629      N2630   1.322       .  A
N2629     Mn2631   2.206       .  S
N2630      C2632   1.355       .  A
Mn2631    Cl2655   2.556       .  S
C2632      C3221   1.497       .  S
C2633      C2994   1.499       .  S
N2634      N2635   1.317       .  A
N2634      N2640   1.311       .  A
N2634     Mn2642   2.177       .  S
N2635      C2643   1.348       .  A
N2636      N2638   1.320       .  A
N2636      N2637   1.322       .  A
N2636     Mn2654   2.219       .  S
N2637      C2644   1.352       .  A
N2638      N2639   1.324       .  A
N2638     Mn2642   2.226       .  S
N2639      C2644   1.355       .  A
N2640      N2641   1.322       .  A
N2640     Mn2654   2.210       .  S
N2641      C2643   1.359       .  A
Mn2642    Cl2655   2.547       .  S
C2643      C3205   1.493       .  S
C2644      C2981   1.485       .  S
N2645      N2646   1.323       .  A
N2645      N2651   1.318       .  A
N2645     Mn2653   2.215       .  S
N2646      C2656   1.356       .  A
N2647      N2648   1.320       .  A
N2647      N2649   1.314       .  A
N2647     Mn2654   2.204       .  S
N2648      C2657   1.354       .  A
N2649      N2650   1.317       .  A
N2649     Mn2653   2.182       .  S
N2650      C2657   1.350       .  A
N2651      N2652   1.322       .  A
N2651     Mn2654   2.218       .  S
N2652      C2656   1.353       .  A
Mn2653    Cl2655   2.551       .  S
Mn2654    Cl2655   2.553       .  S
C2656      C3301   1.495       .  S
C2657      C3010   1.482       .  S
N2658      N2659   1.325       .  A
N2658     Mn2687   2.229       .  S
N2659      C2666   1.357       .  A
N2660      N2661   1.319       .  A
N2660     Mn2676   2.187       .  S
N2662      N2663   1.312       .  A
N2662     Mn2687   2.167       .  S
N2663      C2667   1.343       .  A
N2664      N2665   1.320       .  A
N2664     Mn2676   2.212       .  S
C2666      C3154   1.501       .  S
C2667      C2914   1.493       .  S
N2668      N2669   1.318       .  A
N2668     Mn2698   2.191       .  S
N2669      C2677   1.350       .  A
N2670      N2671   1.322       .  A
N2670     Mn2676   2.210       .  S
N2672      N2673   1.322       .  A
N2672     Mn2698   2.213       .  S
N2673      C2678   1.352       .  A
N2674      N2675   1.321       .  A
N2674     Mn2676   2.200       .  S
C2677      C2962   1.480       .  S
C2678      C3090   1.483       .  S
N2679      N2680   1.324       .  A
N2679     Mn2687   2.213       .  S
N2681      N2682   1.322       .  A
N2681     Mn2699   2.221       .  S
N2682      C2689   1.356   1_655  A
N2683      N2684   1.322       .  A
N2683     Mn2687   2.203       .  S
N2685      N2686   1.317       .  A
N2685     Mn2699   2.194       .  S
N2686      C2688   1.353   1_655  A
C2688      C2946   1.485       .  S
C2689      C3077   1.501       .  S
N2690      N2691   1.321       .  A
N2690     Mn2698   2.212       .  S
N2692      N2693   1.319       .  A
N2692     Mn2699   2.192       .  S
N2693      C2702   1.354       .  A
N2694      N2695   1.319       .  A
N2694     Mn2698   2.195       .  S
N2696      N2697   1.322       .  A
N2696     Mn2699   2.219       .  S
N2697      C2701   1.352       .  A
Mn2699    Cl2700   2.542       .  S
C2701      C3138   1.489       .  S
C2702      C2930   1.474       .  S
N2703      N2704   1.321       .  A
N2703     Mn2732   2.207       .  S
N2704      C2711   1.356   1_655  A
N2705      N2706   1.322       .  A
N2705     Mn2721   2.226       .  S
N2707      N2708   1.323       .  A
N2707     Mn2732   2.203       .  S
N2708      C2712   1.356       .  A
N2709      N2710   1.315       .  A
N2709     Mn2721   2.191       .  S
C2711      C2821   1.486       .  S
C2712      C2869   1.493       .  S
N2713      N2714   1.322       .  A
N2713     Mn2743   2.209       .  S
N2715      N2716   1.330       .  A
N2715     Mn2721   2.253       .  S
N2716      C2723   1.365       .  A
N2717      N2718   1.317       .  A
N2717     Mn2743   2.190       .  S
N2719      N2720   1.316       .  A
N2719     Mn2721   2.175       .  S
N2720      C2722   1.351       .  A
C2722      C2882   1.496       .  S
C2723      C3285   1.507       .  S
N2724      N2725   1.317       .  A
N2724     Mn2732   2.188       .  S
N2725      C2733   1.353       .  A
N2726      N2727   1.320       .  A
N2726     Mn2744   2.199       .  S
N2728      N2729   1.319       .  A
N2728     Mn2732   2.199       .  S
N2729      C2734   1.351       .  A
N2730      N2731   1.317       .  A
N2730     Mn2744   2.200       .  S
Mn2732    Cl2745   2.546       .  S
C2733      C2898   1.476       .  S
C2734      C3266   1.470       .  S
N2735      N2736   1.322       .  A
N2735     Mn2743   2.215       .  S
N2737      N2738   1.318       .  A
N2737     Mn2744   2.182       .  S
N2738      C2747   1.349       .  A
N2739      N2740   1.317       .  A
N2739     Mn2743   2.183       .  S
N2741      N2742   1.323       .  A
N2741     Mn2744   2.222       .  S
N2742      C2746   1.355       .  A
C2746      C2834   1.471   1_655  S
C2747      C2850   1.480       .  S
N2748      C2753   1.351       .  A
N2748      C2752   1.350       .  A
N2748      H2780   1.042       .  S
N2749      C2756   1.350       .  A
N2749      C2757   1.349       .  A
N2750      C2755   1.345       .  A
N2750      C2754   1.346       .  A
N2750      H2781   1.041       .  S
N2751      C2758   1.347       .  A
N2751      C2759   1.347       .  A
C2752      C2760   1.387       .  A
C2752      C2768   1.413       .  A
C2753      C2769   1.410       .  A
C2753      C2761   1.385       .  A
C2754      C2762   1.388       .  A
C2754      C2771   1.405       .  A
C2755      C2770   1.401       .  A
C2755      C2763   1.386       .  A
C2756      C2768   1.414       .  A
C2756      C2764   1.387       .  A
C2757      C2771   1.410       .  A
C2757      C2765   1.385       .  A
C2758      C2766   1.387       .  A
C2758      C2769   1.407       .  A
C2759      C2767   1.386       .  A
C2759      C2770   1.406       .  A
C2760      C2761   1.383       .  A
C2760      H2772   1.082       .  S
C2761      H2773   1.082       .  S
C2762      C2763   1.378       .  A
C2762      H2774   1.082       .  S
C2763      H2775   1.082       .  S
C2764      C2765   1.375       .  A
C2764      H2776   1.082       .  S
C2765      H2777   1.082       .  S
C2766      C2767   1.368       .  A
C2766      H2778   1.082       .  S
C2767      H2779   1.082       .  S
C2768      C2965   1.492       .  S
C2769      C2866   1.482       .  S
C2770      C2853   1.469       .  S
C2771      C2949   1.477       .  S
N2782      C2787   1.349       .  A
N2782      C2786   1.351       .  A
N2782      H2814   1.035       .  S
N2783      C2790   1.350       .  A
N2783      C2791   1.349       .  A
N2784      C2789   1.350       .  A
N2784      C2788   1.350       .  A
N2784      H2815   1.039       .  S
N2785      C2792   1.350       .  A
N2785      C2793   1.350       .  A
C2786      C2794   1.388       .  A
C2786      C2802   1.415       .  A
C2787      C2803   1.410       .  A
C2787      C2795   1.386       .  A
C2788      C2796   1.387       .  A
C2788      C2805   1.411       .  A
C2789      C2804   1.408       .  A
C2789      C2797   1.386       .  A
C2790      C2802   1.416       .  A
C2790      C2798   1.388       .  A
C2791      C2805   1.412       .  A
C2791      C2799   1.387       .  A
C2792      C2803   1.410       .  A
C2793      C2804   1.409       .  A
C2794      C2795   1.376       .  A
C2794      H2806   1.082       .  S
C2795      H2807   1.082       .  S
C2796      C2797   1.378       .  A
C2796      H2808   1.082       .  S
C2797      H2809   1.082       .  S
C2798      C2799   1.368       .  A
C2798      H2810   1.081       .  S
C2799      H2811   1.083       .  S
C2800      C2801   1.366       .  A
C2800      H2812   1.082       .  S
C2801      H2813   1.082       .  S
C2802      C2917   1.488       .  S
C2805      C2933   1.481       .  S
C2816      C2978   1.601       .  S
C2817      C2822   1.402       .  A
C2817      H2824   1.068       .  S
C2818      C2819   1.455   1_455  A
C2819      C2826   1.536       .  S
C2819      C2820   1.414       .  A
C2820      C2821   1.397   1_655  A
C2820      H2825   1.082       .  S
C2822      C2823   1.526       .  S
C2823      F2827   1.385       .  S
C2823      F2828   1.383       .  S
C2823      F2829   1.384       .  S
C2826      F2830   1.371       .  S
C2826      F2831   1.381       .  S
C2826      F2832   1.386       .  S
C2833      C2838   1.414       .  A
C2833      H2840   1.083       .  S
C2834      C2835   1.405       .  A
C2835      C2842   1.521   1_455  S
C2835      C2836   1.405       .  A
C2836      C2837   1.424       .  A
C2836      H2841   1.074       .  S
C2838      C2839   1.535       .  S
C2839      F2843   1.385       .  S
C2839      F2844   1.381       .  S
C2839      F2845   1.374       .  S
C2842      F2846   1.383   1_655  S
C2842      F2847   1.383       .  S
C2842      F2848   1.385       .  S
C2849      C2854   1.399       .  A
C2849      H2856   1.081       .  S
C2850      C2851   1.422       .  A
C2851      C2858   1.521       .  S
C2851      C2852   1.404       .  A
C2852      H2857   1.083       .  S
C2853      C2854   1.408       .  A
C2854      C2855   1.521       .  S
C2855      F2859   1.381       .  S
C2855      F2860   1.383       .  S
C2855      F2861   1.381       .  S
C2858      F2862   1.376       .  S
C2858      F2863   1.383       .  S
C2858      F2864   1.385       .  S
C2865      C2866   1.398       .  A
C2865      C2870   1.405       .  A
C2865      H2872   1.084       .  S
C2867      C2874   1.517       .  S
C2867      C2868   1.409       .  A
C2868      C2869   1.407       .  A
C2868      H2873   1.083       .  S
C2870      C2871   1.511       .  S
C2871      F2875   1.384       .  S
C2871      F2876   1.384       .  S
C2871      F2877   1.381       .  S
C2874      F2878   1.383       .  S
C2874      F2879   1.382       .  S
C2874      F2880   1.384       .  S
C2881      C2882   1.412       .  A
C2881      C2886   1.403       .  A
C2881      H2888   1.076       .  S
C2883      C2890   1.512       .  S
C2883      C2884   1.404       .  A
C2884      H2889   1.084       .  S
C2885      C2886   1.407       .  A
C2886      C2887   1.523       .  S
C2887      F2891   1.383       .  S
C2887      F2892   1.383       .  S
C2890      F2895   1.383       .  S
C2890      F2896   1.383       .  S
C2897      C2898   1.407       .  A
C2897      C2902   1.401       .  A
C2897      H2904   1.083       .  S
C2899      C2906   1.514       .  S
C2899      C2900   1.401       .  A
C2900      H2905   1.084       .  S
C2901      C2902   1.410       .  A
C2902      C2903   1.518       .  S
C2903      F2909   1.382       .  S
C2906      F2910   1.383       .  S
C2913      C2914   1.407       .  A
C2913      C2918   1.408       .  A
C2913      H2920   1.082       .  S
C2914      C2915   1.431       .  A
C2915      C2922   1.527       .  S
C2915      C2916   1.404       .  A
C2916      C2917   1.397       .  A
C2917      C2918   1.416       .  A
C2918      C2919   1.522       .  S
C2919      F2925   1.384       .  S
C2922      F2927   1.380       .  S
C2922      F2928   1.385       .  S
C2929      C2930   1.406       .  A
C2929      C2934   1.403       .  A
C2929      H2936   1.083       .  S
C2931      C2938   1.516       .  S
C2931      C2932   1.402       .  A
C2932      H2937   1.084       .  S
C2933      C2934   1.412       .  A
C2934      C2935   1.518       .  S
C2935      F2939   1.385       .  S
C2935      F2940   1.383       .  S
C2935      F2941   1.381       .  S
C2938      F2942   1.379       .  S
C2938      F2943   1.383       .  S
C2938      F2944   1.385       .  S
C2945      C2946   1.405   1_655  A
C2945      C2950   1.400       .  A
C2945      H2952   1.082       .  S
C2947      C2954   1.517       .  S
C2947      C2948   1.404       .  A
C2948      C2949   1.399       .  A
C2948      H2953   1.085       .  S
C2950      C2951   1.519       .  S
C2951      F2955   1.385       .  S
C2951      F2956   1.382       .  S
C2951      F2957   1.382       .  S
C2954      F2958   1.379       .  S
C2954      F2959   1.382       .  S
C2954      F2960   1.383       .  S
C2961      C2966   1.408       .  A
C2961      H2968   1.083       .  S
C2962      C2963   1.419       .  A
C2963      C2970   1.522       .  S
C2963      C2964   1.404       .  A
C2964      H2969   1.083       .  S
C2965      C2966   1.417       .  A
C2966      C2967   1.519       .  S
C2967      F2971   1.383       .  S
C2967      F2972   1.380       .  S
C2967      F2973   1.383       .  S
C2970      F2974   1.380       .  S
C2970      F2975   1.383       .  S
C2970      F2976   1.385       .  S
C2977      C2978   1.424       .  A
C2977      C2982   1.408       .  A
C2977      H2984   1.071       .  S
C2978      C2979   1.459       .  A
C2979      C2986   1.533       .  S
C2979      C2980   1.416       .  A
C2980      C2981   1.392       .  A
C2980      H2985   1.084       .  S
C2981      C2982   1.406       .  A
C2982      C2983   1.520       .  S
C2983      F2987   1.385       .  S
C2983      F2988   1.382       .  S
C2983      F2989   1.383       .  S
C2986      F2990   1.382       .  S
C2986      F2991   1.373       .  S
C2986      F2992   1.385       .  S
C2993      C2994   1.399       .  A
C2993      C2998   1.414       .  A
C2993      H3000   1.082       .  S
C2994      C2995   1.412       .  A
C2995      C3002   1.525       .  S
C2995      C2996   1.408       .  A
C2996      C2997   1.427       .  A
C2996      H3001   1.069       .  S
C2997      C2998   1.453       .  A
C2998      C2999   1.534       .  S
C2999      F3003   1.382       .  S
C2999      F3004   1.385       .  S
C2999      F3005   1.371   1_655  S
C3002      F3006   1.382       .  S
C3002      F3007   1.383       .  S
C3002      F3008   1.386       .  S
C3009      C3010   1.406       .  A
C3009      C3014   1.400       .  A
C3009      H3016   1.084       .  S
C3010      C3011   1.420       .  A
C3011      C3018   1.516       .  S
C3011      C3012   1.405       .  A
C3012      C3013   1.399       .  A
C3012      H3017   1.083       .  S
C3013      C3014   1.414       .  A
C3014      C3015   1.521       .  S
C3015      F3019   1.381       .  S
C3015      F3020   1.382       .  S
C3015      F3021   1.383       .  S
C3018      F3022   1.384       .  S
C3018      F3023   1.383       .  S
C3018      F3024   1.383       .  S
C3025      C3026   1.405       .  A
C3025      C3030   1.404       .  A
C3025      H3032   1.083       .  S
C3026      C3027   1.418       .  A
C3027      C3034   1.521       .  S
C3027      C3028   1.409       .  A
C3028      C3029   1.405       .  A
C3028      H3033   1.082       .  S
C3029      C3030   1.415       .  A
C3030      C3031   1.519       .  S
C3031      F3035   1.384       .  S
C3031      F3036   1.382       .  S
C3031      F3037   1.385       .  S
C3034      F3038   1.381       .  S
C3034      F3039   1.383       .  S
C3034      F3040   1.385       .  S
C3041      C3042   1.401       .  A
C3041      C3046   1.409       .  A
C3041      H3048   1.083       .  S
C3042      C3043   1.412       .  A
C3043      C3050   1.517       .  S
C3043      C3044   1.400       .  A
C3044      C3045   1.407       .  A
C3044      H3049   1.084       .  S
C3045      C3046   1.427       .  A
C3046      C3047   1.520       .  S
C3047      F3051   1.385       .  S
C3047      F3052   1.383       .  S
C3047      F3053   1.382       .  S
C3050      F3054   1.382       .  S
C3050      F3055   1.382       .  S
C3050      F3056   1.382       .  S
C3057      C3058   1.397       .  A
C3057      C3062   1.405       .  A
C3057      H3064   1.083       .  S
C3058      C3059   1.413       .  A
C3059      C3066   1.519       .  S
C3059      C3060   1.406       .  A
C3060      C3061   1.409       .  A
C3060      H3065   1.082       .  S
C3061      C3062   1.425       .  A
C3062      C3063   1.518       .  S
C3063      F3067   1.384       .  S
C3063      F3068   1.382       .  S
C3063      F3069   1.383       .  S
C3066      F3070   1.385       .  S
C3066      F3071   1.383       .  S
C3066      F3072   1.382       .  S
C3073      C3078   1.408       .  A
C3073      H3080   1.070       .  S
C3074      C3075   1.459       .  A
C3075      C3082   1.534       .  S
C3075      C3076   1.409       .  A
C3076      C3077   1.391   1_655  A
C3076      H3081   1.085       .  S
C3078      C3079   1.520       .  S
C3079      F3083   1.385       .  S
C3079      F3084   1.383       .  S
C3079      F3085   1.382       .  S
C3082      F3086   1.380       .  S
C3082      F3087   1.365       .  S
C3082      F3088   1.388       .  S
C3089      C3090   1.385       .  A
C3089      C3094   1.414       .  A
C3089      H3096   1.083       .  S
C3091      C3098   1.520       .  S
C3091      C3092   1.410       .  A
C3092      H3097   1.076       .  S
C3093      C3094   1.459       .  A
C3094      C3095   1.528       .  S
C3095      F3099   1.386       .  S
C3095      F3100   1.366   1_655  S
C3095      F3101   1.377       .  S
C3098      F3102   1.383       .  S
C3098      F3103   1.383       .  S
C3098      F3104   1.385       .  S
C3105      C3106   1.421       .  A
C3105      C3110   1.415       .  A
C3105      H3112   1.075       .  S
C3106      C3107   1.451       .  A
C3107      C3114   1.535       .  S
C3107      C3108   1.408       .  A
C3108      C3109   1.397       .  A
C3108      H3113   1.086       .  S
C3109      C3110   1.417       .  A
C3110      C3111   1.518       .  S
C3111      F3115   1.385       .  S
C3111      F3116   1.383       .  S
C3111      F3117   1.383       .  S
C3114      F3118   1.383       .  S
C3114      F3119   1.369       .  S
C3114      F3120   1.386       .  S
C3121      C3122   1.393       .  A
C3121      C3126   1.419       .  A
C3121      H3128   1.083       .  S
C3122      C3123   1.397       .  A
C3123      C3130   1.519       .  S
C3123      C3124   1.403       .  A
C3124      C3125   1.430       .  A
C3124      H3129   1.081       .  S
C3125      C3126   1.464       .  A
C3126      C3127   1.540       .  S
C3127      F3131   1.386       .  S
C3127      F3132   1.368   1_655  S
C3127      F3133   1.379       .  S
C3130      F3134   1.383       .  S
C3130      F3135   1.384       .  S
C3130      F3136   1.385       .  S
C3137      C3138   1.391       .  A
C3137      C3142   1.416       .  A
C3137      H3144   1.083       .  S
C3138      C3139   1.411       .  A
C3139      C3146   1.518       .  S
C3139      C3140   1.415       .  A
C3140      C3141   1.421       .  A
C3140      H3145   1.078       .  S
C3141      C3142   1.453       .  A
C3143      F3147   1.385       .  S
C3143      F3148   1.369   1_545  S
C3146      F3151   1.383       .  S
C3146      F3152   1.384       .  S
C3153      C3154   1.394       .  A
C3153      C3158   1.420       .  A
C3153      H3160   1.081       .  S
C3155      C3162   1.523       .  S
C3155      C3156   1.405       .  A
C3156      H3161   1.072       .  S
C3157      C3158   1.462       .  A
C3158      C3159   1.536       .  S
C3159      F3163   1.372       .  S
C3159      F3165   1.372       .  S
C3162      F3166   1.383       .  S
C3162      F3168   1.385       .  S
C3169      C3170   1.437       .  A
C3169      C3174   1.408       .  A
C3169      H3176   1.079       .  S
C3170      C3171   1.464       .  A
C3171      C3178   1.530       .  S
C3171      C3172   1.424       .  A
C3172      C3173   1.391       .  A
C3172      H3177   1.082       .  S
C3173      C3174   1.399       .  A
C3174      C3175   1.519       .  S
C3175      F3179   1.384       .  S
C3175      F3180   1.383       .  S
C3175      F3181   1.384       .  S
C3178      F3182   1.372       .  S
C3178      F3183   1.379       .  S
C3178      F3184   1.386       .  S
C3185      C3186   1.425       .  A
C3185      C3190   1.415       .  A
C3185      H3192   1.078       .  S
C3186      C3187   1.455       .  A
C3187      C3194   1.534       .  S
C3187      C3188   1.407       .  A
C3188      C3189   1.398       .  A
C3188      H3193   1.085       .  S
C3189      C3190   1.417       .  A
C3190      C3191   1.519       .  S
C3191      F3195   1.385       .  S
C3191      F3196   1.382       .  S
C3191      F3197   1.384       .  S
C3194      F3198   1.382       .  S
C3194      F3199   1.367       .  S
C3194      F3200   1.387       .  S
C3201      C3202   1.399       .  A
C3201      C3206   1.408       .  A
C3201      H3208   1.083       .  S
C3202      C3203   1.412       .  A
C3203      C3210   1.520       .  S
C3203      C3204   1.404       .  A
C3204      C3205   1.407       .  A
C3204      H3209   1.081       .  S
C3205      C3206   1.429       .  A
C3206      C3207   1.523       .  S
C3207      F3211   1.385       .  S
C3207      F3212   1.381       .  S
C3207      F3213   1.384       .  S
C3210      F3214   1.382       .  S
C3210      F3215   1.382       .  S
C3210      F3216   1.383       .  S
C3217      C3218   1.400       .  A
C3217      C3222   1.408       .  A
C3217      H3224   1.083       .  S
C3218      C3219   1.411       .  A
C3219      C3226   1.518       .  S
C3219      C3220   1.407       .  A
C3220      C3221   1.411       .  A
C3220      H3225   1.082       .  S
C3221      C3222   1.426       .  A
C3222      C3223   1.519       .  S
C3223      F3227   1.385       .  S
C3223      F3228   1.383       .  S
C3223      F3229   1.383       .  S
C3226      F3230   1.382       .  S
C3226      F3231   1.383       .  S
C3226      F3232   1.382       .  S
C3233      C3234   1.402       .  A
C3233      C3238   1.414       .  A
C3233      H3240   1.083       .  S
C3234      C3235   1.413       .  A
C3235      C3242   1.522       .  S
C3235      C3236   1.403       .  A
C3236      C3237   1.411       .  A
C3236      H3241   1.081       .  S
C3237      C3238   1.425       .  A
C3238      C3239   1.516       .  S
C3239      F3243   1.384       .  S
C3239      F3244   1.383       .  S
C3239      F3245   1.382       .  S
C3242      F3246   1.384       .  S
C3242      F3247   1.382       .  S
C3242      F3248   1.384       .  S
C3249      C3250   1.398       .  A
C3249      C3254   1.406       .  A
C3249      H3256   1.083       .  S
C3250      C3251   1.411       .  A
C3251      C3258   1.517       .  S
C3251      C3252   1.409       .  A
C3252      C3253   1.410       .  A
C3252      H3257   1.083       .  S
C3253      C3254   1.424       .  A
C3254      C3255   1.517       .  S
C3255      F3259   1.384       .  S
C3255      F3260   1.383       .  S
C3255      F3261   1.383       .  S
C3258      F3262   1.385       .  S
C3258      F3263   1.383       .  S
C3258      F3264   1.383       .  S
C3265      C3270   1.421       .  A
C3265      H3272   1.083       .  S
C3266      C3267   1.394       .  A
C3267      C3274   1.519       .  S
C3267      C3268   1.400       .  A
C3268      C3269   1.432       .  A
C3268      H3273   1.079       .  S
C3270      C3271   1.539       .  S
C3271      F3275   1.386       .  S
C3271      F3277   1.380       .  S
C3274      F3278   1.384       .  S
C3274      F3280   1.385       .  S
C3281      C3286   1.406       .  A
C3281      H3288   1.071       .  S
C3282      C3283   1.453       .  A
C3283      C3290   1.532       .  S
C3283      C3284   1.418       .  A
C3284      C3285   1.398       .  A
C3284      H3289   1.085       .  S
C3286      C3287   1.523       .  S
C3287      F3291   1.386       .  S
C3287      F3293   1.383       .  S
C3290      F3294   1.382       .  S
C3290      F3296   1.386       .  S
C3297      C3298   1.423       .  A
C3297      C3302   1.414       .  A
C3297      H3304   1.075       .  S
C3298      C3299   1.459       .  A
C3299      C3306   1.535       .  S
C3299      C3300   1.411       .  A
C3300      C3301   1.391       .  A
C3300      H3305   1.086       .  S
C3301      C3302   1.414       .  A
C3302      C3303   1.520       .  S
C3303      F3307   1.384       .  S
C3303      F3308   1.384       .  S
C3303      F3309   1.382       .  S
C3306      F3310   1.381       .  S
C3306      F3311   1.366       .  S
C3306      F3312   1.388       .  S
C3313      C3314   1.382       .  A
C3313      C3318   1.411       .  A
C3313      H3320   1.083       .  S
C3314      C3315   1.407       .  A
C3315      C3322   1.518       .  S
C3315      C3316   1.415       .  A
C3316      C3317   1.430       .  A
C3316      H3321   1.075       .  S
C3317      C3318   1.461       .  A
C3318      C3319   1.529       .  S
C3319      F3323   1.386       .  S
C3319      F3324   1.368       .  S
C3319      F3325   1.374       .  S
C3322      F3326   1.383       .  S
C3322      F3327   1.383       .  S
C3322      F3328   1.385       .  S
