geometry optimzed in LAMMPS
_audit_creation_date              2020-12-01 
_audit_creation_method            'lammps2cif' 
_symmetry_space_group_name_H-M    'P1' 
_symmetry_Int_Tables_number       1 
_symmetry_cell_setting            triclinic 
loop_ 
_symmetry_equiv_pos_as_xyz 
  x,y,z 
_cell_length_a                    50.93371338 
_cell_length_b                    49.58930529752544 
_cell_length_c                    33.521105217835036 
_cell_angle_alpha                 95.160387162431 
_cell_angle_beta                  89.52783115807647 
_cell_angle_gamma                 121.19281373628085 
loop_ 
_atom_site_label 
_atom_site_type_symbol 
_atom_site_fract_x 
_atom_site_fract_y 
_atom_site_fract_z 
_atom_site_charge 
C1          C  0.29711875  0.14314733  0.95434431     0.03000
C2          C  0.30918083  0.12440517  0.96324251    -0.13100
C3          C  0.34100108  0.13711253  0.96479891     0.00500
C4          C  0.36089478  0.16899758  0.95885273    -0.11700
C5          C  0.34923381  0.18792026  0.94982828     0.03000
C6          C  0.31727557  0.17500869  0.94784577    -0.11100
H7          H  0.29376580  0.09945751  0.96646873     0.08600
H8          H  0.38546158  0.17856602  0.95882410     0.06100
H9          H  0.30813355  0.18929427  0.93957203     0.06000
C10         C  0.30146179  0.15637251  0.47349012     0.03000
C11         C  0.31445422  0.13745435  0.46938403    -0.13100
C12         C  0.34575429  0.15092439  0.46283490     0.00500
C13         C  0.36386394  0.18350001  0.45893834    -0.11700
C14         C  0.35121727  0.20291478  0.46319955     0.03000
C15         C  0.32006905  0.18920689  0.47219260    -0.11100
H16         H  0.29990580  0.11200228  0.46972136     0.08600
H17         H  0.38766278  0.19351914  0.45139571     0.06100
H18         H  0.30980363  0.20367968  0.47543421     0.06000
C19         C  0.18307812  0.34062446  0.78452208     0.03000
C20         C  0.16964371  0.30832320  0.78882107    -0.13100
C21         C  0.13771646  0.28774419  0.78472811     0.00500
C22         C  0.11905173  0.29977387  0.77563119    -0.11700
C23         C  0.13219400  0.33232124  0.77300285     0.03000
C24         C  0.16414379  0.35264435  0.77749076    -0.11100
H25         H  0.18421661  0.29916197  0.79560775     0.08600
H26         H  0.09439305  0.28418631  0.77234998     0.06100
H27         H  0.17424648  0.37785468  0.77590506     0.06000
C28         C  0.21314749  0.35454542  0.27351528     0.03000
C29         C  0.19882377  0.32219290  0.27832918    -0.13100
C30         C  0.16799867  0.30510672  0.28839952     0.00500
C31         C  0.15132768  0.32046226  0.29331390    -0.11700
C32         C  0.16537666  0.35278160  0.28790505     0.03000
C33         C  0.19625811  0.36962548  0.27768904    -0.11100
H34         H  0.21200194  0.31063022  0.27581295     0.08600
H35         H  0.12766274  0.30742987  0.30191371     0.06100
H36         H  0.20748006  0.39475889  0.27458485     0.06000
O37         O  0.04435942  0.48779641  0.79213047    -0.80300
O38         O  0.42131656  0.44481076  0.83023982    -0.80300
O39         O  0.48946093  0.43557408  0.90537832    -0.80300
O40         O  0.47565122  0.01276445  0.79335311    -0.80200
O41         O  0.45210029  0.42054106  0.86227994    -0.80300
O42         O  0.98260790  0.97255713  0.78860576    -0.80300
O43         O  0.42909548  0.49251515  0.83080967    -0.80300
O44         O  0.01780919  0.45278986  0.83467278    -0.80300
C45         C  0.03577991  0.46132471  0.80483116     1.09400
C46         C  0.41236203  0.46292984  0.82093134     1.09300
C47         C  0.46558155  0.41337879  0.88650611     1.09500
C48         C  0.47782309  0.49117052  0.76211410     1.09300
O49         O  0.03091562  0.03647062  0.81282205    -0.80300
O50         O  0.46072190  0.46003284  0.93928901    -0.80300
O51         O  0.05143733  0.98725306  0.91429481    -0.80300
O52         O  0.46549456  0.02930386  0.90984173    -0.80200
O53         O  0.42698521  0.98113467  0.91519006    -0.80300
O54         O  0.05258630  0.02046995  0.87415689    -0.80300
O55         O  0.01552700  0.05402002  0.86384093    -0.80200
O56         O  0.00904375  0.49813482  0.93683216    -0.80300
Co57       Co  0.01470431  0.99381498  0.83279146     1.51500
Co58       Co  0.44287005  0.45317526  0.88232407     1.51700
Co59       Co  0.01297942  0.47842446  0.88471812     1.51600
Co60       Co  0.47214376  0.02043717  0.85355190     1.51500
O61         O  0.48215283  0.48692496  0.86004862    -1.42200
C62         C  0.03301674  0.05953335  0.83513052     1.09400
C63         C  0.48599404  0.48163000  0.95742928     1.09500
C64         C  0.06684341  0.01329236  0.89903407     1.09400
C65         C  0.44001777  0.01084814  0.92431846     1.09400
O66         O  0.06814656  0.50322345  0.31667133    -0.80300
O67         O  0.44402214  0.46294607  0.32019645    -0.80300
O68         O  0.49737711  0.45327528  0.41974384    -0.80300
O69         O  0.50683026  0.03298914  0.29447820    -0.80200
O70         O  0.46643804  0.43638205  0.36728206    -0.80300
O71         O  0.01182065  0.99174557  0.29542241    -0.80300
O72         O  0.45248936  0.51091512  0.31873933    -0.80300
O73         O  0.03872935  0.47167249  0.36075420    -0.80300
C74         C  0.06004427  0.47899669  0.33497981     1.09400
C75         C  0.43713479  0.48156423  0.30659275     1.09300
C76         C  0.47630739  0.43031672  0.39737141     1.09500
C77         C  0.50715443  0.50900316  0.26644636     1.09300
O78         O  0.05801268  0.05433992  0.32776593    -0.80300
O79         O  0.46446454  0.47552088  0.43767337    -0.80300
O80         O  0.05562097  0.00014474  0.44184076    -0.80300
O81         O  0.48018295  0.04695272  0.40270623    -0.80200
O82         O  0.43904943  0.99968569  0.39966148    -0.80300
O83         O  0.06716456  0.03457639  0.39704508    -0.80300
O84         O  0.03658687  0.06972426  0.37235553    -0.80200
O85         O  0.01148845  0.51622730  0.44550143    -0.80300
Co86       Co  0.03642520  0.01057283  0.34688920     1.51500
Co87       Co  0.45631742  0.46957720  0.37721486     1.51700
Co88       Co  0.02474121  0.49669634  0.40163713     1.51600
Co89       Co  0.49457298  0.03911561  0.35097593     1.51500
O90         O  0.49909756  0.50327943  0.36358193    -1.42200
C91         C  0.05679908  0.07680340  0.34699155     1.09400
C92         C  0.48555124  0.49893888  0.46014264     1.09500
C93         C  0.07488285  0.02582461  0.42800001     1.09400
C94         C  0.45236738  0.02919389  0.41029120     1.09400
C95         C  0.48050594  0.50326680  0.50454045     0.01200
C96         C  0.00672013  0.01660729  0.54212964     0.04000
C97         C  0.00221491  0.01464645  0.58381360    -0.12000
C98         C  0.47366352  0.50033507  0.58926773     0.23300
C99         C  0.44822395  0.48136781  0.56237888    -0.12600
C100        C  0.45118327  0.48365274  0.52059322     0.04800
C101        C  0.47179406  0.49512843  0.63302055     0.27200
C102        C  0.97823863  0.97053485  0.65812010    -0.13300
C103        C  0.97886045  0.96885608  0.70006809     0.05300
C104        C  0.47238782  0.48849829  0.71708338    -0.09200
C105        C  0.45627994  0.50177839  0.70092730     0.06100
C106        C  0.45730219  0.50638934  0.65972380    -0.13600
Br107      Br  0.40939818  0.45100177  0.58297278    -0.05700
Br108      Br  0.04854834  0.04117559  0.52595322    -0.00100
Br109      Br  0.99419061  0.94372281  0.71892564     0.00400
Br110      Br  0.44006839  0.52960564  0.63997108    -0.04000
Br111      Br  0.41400071  0.46011244  0.48676460     0.00500
Br112      Br  0.03660423  0.03874628  0.62217751    -0.03300
Br113      Br  0.99051642  0.94672193  0.62206576    -0.04200
Br114      Br  0.43153376  0.51295629  0.73420769    -0.00200
C115        C  0.48885599  0.48576913  0.00306006     0.01200
C116        C  0.01473143  0.01432353  0.03449806     0.04000
C117        C  0.01784897  0.01647365  0.07687028    -0.12000
C118        C  0.49389897  0.49303191  0.08932397     0.23300
C119        C  0.47138523  0.46421137  0.06842797    -0.12600
C120        C  0.46942942  0.46014567  0.02592366     0.04800
C121        C  0.49680049  0.49660662  0.13460750     0.27200
C122        C  0.01135229  0.48369472  0.15471649    -0.13300
C123        C  0.01407391  0.48683825  0.19723206     0.05300
C124        C  0.50281160  0.50384988  0.22087033    -0.09200
C125        C  0.48815164  0.51680711  0.20000804     0.06100
C126        C  0.48491226  0.51275692  0.15753250    -0.13600
Br127      Br  0.44298407  0.43005604  0.09869484    -0.05700
Br128      Br  0.04702556  0.04851791  0.00775670    -0.00100
Br129      Br  0.03471465  0.46844972  0.22149090     0.00400
Br130      Br  0.46364317  0.52908888  0.13004690    -0.04000
Br131      Br  0.44173043  0.41790974  0.00051126     0.00500
Br132      Br  0.05442839  0.05077055  0.10543325    -0.03300
Br133      Br  0.02830270  0.46214999  0.12328128    -0.04200
Br134      Br  0.47144995  0.54000296  0.22809480    -0.00200
C135        C  0.15377958  0.27148429  0.29579289     0.01200
C136        C  0.15322464  0.26337647  0.33515548     0.04000
C137        C  0.13979327  0.23139555  0.34222855    -0.12000
C138        C  0.12662124  0.20739447  0.31001131     0.23300
C139        C  0.12751549  0.21554319  0.27057926    -0.12600
C140        C  0.14122406  0.24756773  0.26347138     0.04800
C141        C  0.10906059  0.17361563  0.31817937     0.27200
C142        C  0.12368411  0.15618081  0.32036439    -0.13300
C143        C  0.10682675  0.12446829  0.32974076     0.05300
C144        C  0.07511780  0.10999922  0.33657215    -0.09200
C145        C  0.06044397  0.12751024  0.33321996     0.06100
C146        C  0.07747560  0.15920162  0.32452421    -0.13600
Br147      Br  0.10905834  0.18265740  0.22660138    -0.05700
Br148      Br  0.17050936  0.29612718  0.37941167    -0.00100
Br149      Br  0.12764824  0.10161380  0.33501433     0.00400
Br150      Br  0.05756743  0.18325570  0.32126731    -0.04000
Br151      Br  0.14218291  0.25881000  0.20964080     0.00500
Br152      Br  0.13859882  0.22020548  0.39615545    -0.03300
Br153      Br  0.16689387  0.17608555  0.31075904    -0.04200
Br154      Br  0.51655997  0.10825515  0.33819300    -0.00200
C155        C  0.24671786  0.37349020  0.26941783     0.01200
C156        C  0.25921016  0.38455148  0.23244773     0.04000
C157        C  0.29129330  0.40370314  0.22966371    -0.12000
C158        C  0.31080339  0.41104811  0.26359087     0.23300
C159        C  0.29826858  0.39907743  0.30011971    -0.12600
C160        C  0.26633254  0.38092448  0.30326745     0.04800
C161        C  0.34455480  0.43185647  0.26200933     0.27200
C162        C  0.36275888  0.41852651  0.25356479    -0.13300
C163        C  0.39460216  0.43673457  0.26239845     0.05300
C164        C  0.40801602  0.46785508  0.28186530    -0.09200
C165        C  0.39035069  0.48261688  0.28413788     0.06100
C166        C  0.35857977  0.46437640  0.27450505    -0.13600
Br167      Br  0.32495219  0.40724006  0.34589408    -0.05700
Br168      Br  0.23237860  0.37291490  0.18569367    -0.00100
Br169      Br  0.41949674  0.41864744  0.24787474     0.00400
Br170      Br  0.33347270  0.48304507  0.28175526    -0.04000
Br171      Br  0.24946268  0.36721292  0.35450321     0.00500
Br172      Br  0.30870446  0.41996980  0.17974587    -0.03300
Br173      Br  0.34347651  0.37446736  0.23330857    -0.04200
Br174      Br  0.40961121  0.03050935  0.30188149    -0.00200
C175        C  0.07442711  0.45896075  0.32657937     0.01200
C176        C  0.09951452  0.46841940  0.30052149     0.04000
C177        C  0.11323831  0.44999581  0.29367597    -0.12000
C178        C  0.10221974  0.42183103  0.31177982     0.23300
C179        C  0.07757796  0.41199332  0.33717754    -0.12600
C180        C  0.06442855  0.43073945  0.34578215     0.04800
C181        C  0.11781950  0.40344360  0.30606260     0.27200
C182        C  0.10898277  0.38000755  0.27345160    -0.13300
C183        C  0.12428447  0.36315944  0.26769611     0.05300
C184        C  0.14836075  0.36953176  0.29474375    -0.09200
C185        C  0.15668306  0.39248498  0.32794914     0.06100
C186        C  0.14149993  0.40943533  0.33350940    -0.13600
Br187      Br  0.06234923  0.37253190  0.36077353    -0.05700
Br188      Br  0.11767652  0.50738237  0.27502692    -0.00100
Br189      Br  0.11295464  0.33210166  0.22197823     0.00400
Br190      Br  0.15300784  0.44094373  0.37879514    -0.04000
Br191      Br  0.03494785  0.41750258  0.38710383     0.00500
Br192      Br  0.14801507  0.46344638  0.25991781    -0.03300
Br193      Br  0.07588275  0.37115346  0.23675850    -0.04200
Br194      Br  0.18837440  0.40017193  0.36649646    -0.00200
C195        C  0.05351958  0.09252184  0.82624937     0.01200
C196        C  0.07510362  0.11527811  0.85581690     0.04000
C197        C  0.09294570  0.14718255  0.84812230    -0.12000
C198        C  0.08658417  0.15695851  0.81318774     0.23300
C199        C  0.06444907  0.13446027  0.78424500    -0.12600
C200        C  0.04914693  0.10217333  0.78979086     0.04800
C201        C  0.10120972  0.19097837  0.80789878     0.27200
C202        C  0.09053544  0.20906094  0.82891343    -0.13300
C203        C  0.10275008  0.24082966  0.82192692     0.05300
C204        C  0.12417470  0.25400833  0.79174320    -0.09200
C205        C  0.13403582  0.23533055  0.76984343     0.06100
C206        C  0.12353367  0.20437496  0.77915059    -0.13600
Br207      Br  0.05346781  0.14817217  0.73831639    -0.05700
Br208      Br  0.07961334  0.10325148  0.90741321    -0.00100
Br209      Br  0.09078940  0.26613256  0.85534350     0.00400
Br210      Br  0.13935590  0.17994633  0.75231540    -0.04000
Br211      Br  0.02072227  0.07192288  0.74814673     0.00500
Br212      Br  0.12570136  0.17766364  0.88551115    -0.03300
Br213      Br  0.05840320  0.18986341  0.86649060    -0.04200
Br214      Br  0.16025684  0.25103764  0.72516112    -0.00200
C215        C  0.21698098  0.36155381  0.78723469     0.01200
C216        C  0.23376335  0.36475383  0.82252514     0.04000
C217        C  0.26606108  0.38219789  0.82365041    -0.12000
C218        C  0.28171442  0.39746806  0.79014297     0.23300
C219        C  0.26507956  0.39536347  0.75551317    -0.12600
C220        C  0.23279373  0.37698679  0.75371852     0.04800
C221        C  0.31575543  0.41577325  0.79155299     0.27200
C222        C  0.33186412  0.44814625  0.80522887    -0.13300
C223        C  0.36410008  0.46495430  0.81027161     0.05300
C224        C  0.38035733  0.44881171  0.80365536    -0.09200
C225        C  0.36413197  0.41711729  0.78541541     0.06100
C226        C  0.33192501  0.40065826  0.77987014    -0.13600
Br227      Br  0.28678289  0.41749098  0.71044693    -0.05700
Br228      Br  0.21267880  0.34611896  0.86987600    -0.00100
Br229      Br  0.38462219  0.50987774  0.82641157     0.00400
Br230      Br  0.30950389  0.35691307  0.75746175    -0.04000
Br231      Br  0.21056714  0.37158057  0.70433817     0.00500
Br232      Br  0.28907796  0.38500310  0.87093018    -0.03300
Br233      Br  0.30923488  0.46895612  0.81876168    -0.04200
Br234      Br  0.38555246  0.39611562  0.76604132    -0.00200
C235        C  0.04592393  0.44009684  0.78587981     0.01200
C236        C  0.07712146  0.45242682  0.77687101     0.04000
C237        C  0.08789639  0.43179749  0.76679345    -0.12000
C238        C  0.06774042  0.39885566  0.76556927     0.23300
C239        C  0.03614211  0.38640928  0.77016193    -0.12600
C240        C  0.02516113  0.40695530  0.78000190     0.04800
C241        C  0.08076507  0.37820002  0.76647423     0.27200
C242        C  0.08699242  0.36552493  0.73083381    -0.13300
C243        C  0.10289162  0.34932583  0.73276864     0.05300
C244        C  0.11254836  0.34593038  0.77029204    -0.09200
C245        C  0.10537589  0.35766881  0.80582394     0.06100
C246        C  0.08962439  0.37382441  0.80392283    -0.13600
Br247      Br  0.00836368  0.34113031  0.76492772    -0.05700
Br248      Br  0.10587863  0.99971604  0.79202130    -0.00100
Br249      Br  0.11249621  0.33276897  0.68430809     0.00400
Br250      Br  0.08183452  0.39173256  0.85278712    -0.04000
Br251      Br  0.48156875  0.38945857  0.78455725     0.00500
Br252      Br  0.13094831  0.44851166  0.75772837    -0.03300
Br253      Br  0.07496344  0.37169095  0.67969712    -0.04200
Br254      Br  0.11829468  0.35272786  0.85726170    -0.00200
C255        C  0.43438851  0.04355064  0.42677700     0.01200
C256        C  0.40204192  0.02784672  0.41866413     0.04000
C257        C  0.38635367  0.04401223  0.42712294    -0.12000
C258        C  0.40241978  0.07568394  0.44374907     0.23300
C259        C  0.43383739  0.09076401  0.45455549    -0.12600
C260        C  0.44976020  0.07474434  0.44679304     0.04800
C261        C  0.38656649  0.09369200  0.44821822     0.27200
C262        C  0.38578463  0.10993078  0.41631749    -0.13300
C263        C  0.37165148  0.12790767  0.42067567     0.05300
C264        C  0.35909838  0.13053065  0.45750819    -0.09200
C265        C  0.35919966  0.11351445  0.48911015     0.06100
C266        C  0.37257171  0.09479274  0.48419082    -0.13600
Br267      Br  0.45512735  0.13404607  0.47882833    -0.05700
Br268      Br  0.37803517  0.98469896  0.39440201    -0.00100
Br269      Br  0.36822775  0.14757778  0.37538778     0.00400
Br270      Br  0.37181146  0.07050670  0.52652420    -0.04000
Br271      Br  0.49243613  0.09607644  0.46509281     0.00500
Br272      Br  0.34274125  0.02337525  0.41447137    -0.03300
Br273      Br  0.40414216  0.10738889  0.36658473    -0.04200
Br274      Br  0.34209074  0.11657935  0.53974866    -0.00200
C275        C  0.36991395  0.23676225  0.45479085     0.01200
C276        C  0.35886997  0.24863063  0.42654438     0.04000
C277        C  0.37616088  0.28072668  0.41947644    -0.12000
C278        C  0.40634202  0.30017968  0.43603236     0.23300
C279        C  0.41824309  0.28796869  0.46219070    -0.12600
C280        C  0.39948950  0.25710092  0.47346735     0.04800
C281        C  0.42541994  0.33354702  0.42633202     0.27200
C282        C  0.43639688  0.34029952  0.38752709    -0.13300
C283        C  0.45286339  0.37185837  0.37786390     0.05300
C284        C  0.46100472  0.39714240  0.40801155    -0.09200
C285        C  0.45182268  0.39017765  0.44765018     0.06100
C286        C  0.43260728  0.35859103  0.45605208    -0.13600
Br287      Br  0.46056981  0.31341449  0.48195320    -0.05700
Br288      Br  0.32159400  0.22092485  0.39413963    -0.00100
Br289      Br  0.46485104  0.38003802  0.32330559     0.00400
Br290      Br  0.41471005  0.34955715  0.50790214    -0.04000
Br291      Br  0.41413834  0.24381075  0.51614411     0.00500
Br292      Br  0.35822298  0.29823325  0.38758800    -0.03300
Br293      Br  0.42900088  0.30620080  0.34762809    -0.04200
Br294      Br  0.46457067  0.42317851  0.49117014    -0.00200
C295        C  0.10622932  0.04588067  0.44669547     0.01200
C296        C  0.12402136  0.03232022  0.45424379     0.04000
C297        C  0.15541143  0.05195947  0.46539770    -0.12000
C298        C  0.16926269  0.08510028  0.46834415     0.23300
C299        C  0.15123030  0.09863964  0.46369832    -0.12600
C300        C  0.11967923  0.07907639  0.45333809     0.04800
C301        C  0.20317709  0.10532745  0.47024133     0.27200
C302        C  0.21970782  0.12019878  0.50706425    -0.13300
C303        C  0.25205669  0.13822719  0.50815587     0.05300
C304        C  0.26772431  0.14080325  0.47255708    -0.09200
C305        C  0.25110604  0.12639008  0.43568815     0.06100
C306        C  0.21891263  0.10883188  0.43451035    -0.13600
Br307      Br  0.17032419  0.14411782  0.46911372    -0.05700
Br308      Br  0.10500348  0.48502487  0.44040959    -0.00100
Br309      Br  0.27501252  0.15862935  0.55827227     0.00400
Br310      Br  0.19622192  0.08879384  0.38394191    -0.04000
Br311      Br  0.09508043  0.09800679  0.44851632     0.00500
Br312      Br  0.18025473  0.03371780  0.47377684    -0.03300
Br313      Br  0.19797689  0.11487269  0.55585054    -0.04200
Br314      Br  0.27251356  0.13023964  0.38669804    -0.00200
C315        C  0.35352825  0.11616681  0.96601200     0.01200
C316        C  0.36533868  0.10936635  0.93091109     0.04000
C317        C  0.37926519  0.09135079  0.93193328    -0.12000
C318        C  0.38032636  0.07884218  0.96757694     0.23300
C319        C  0.36770741  0.08476976  0.00244343    -0.12600
C320        C  0.35455791  0.10372242  0.00177454     0.04800
C321        C  0.39409277  0.05879727  0.96715813     0.27200
C322        C  0.37654246  0.02677426  0.95185542    -0.13300
C323        C  0.39092439  0.00938615  0.94239047     0.05300
C324        C  0.42345986  0.02460595  0.94672501    -0.09200
C325        C  0.44027605  0.05562150  0.96685048     0.06900
C326        C  0.42558544  0.07265519  0.97677977    -0.13600
Br327      Br  0.36863031  0.06697646  0.05083330    -0.05700
Br328      Br  0.36152068  0.12381615  0.88083371    -0.00100
Br329      Br  0.36516278  0.96542140  0.92156413     0.00400
Br330      Br  0.44885264  0.11586131  0.00096182    -0.04000
Br331      Br  0.33855703  0.11320882  0.04980140     0.00500
Br332      Br  0.39729160  0.08406431  0.88441241    -0.03300
Br333      Br  0.33296148  0.00772284  0.94064188    -0.04200
Br334      Br  0.48350051  0.07521437  0.98105788    -0.00200
C335        C  0.45180979  0.37990610  0.89456206     0.01200
C336        C  0.41983771  0.36144811  0.90009242     0.04000
C337        C  0.40629236  0.32959803  0.90740471    -0.12000
C338        C  0.42427467  0.31565315  0.90844960     0.23300
C339        C  0.45602337  0.33372529  0.90244010    -0.12600
C340        C  0.46992641  0.36601859  0.89638197     0.04800
C341        C  0.40938034  0.28230140  0.91775930     0.27200
C342        C  0.40931948  0.27572498  0.95779635    -0.13300
C343        C  0.39013373  0.24468695  0.96821474     0.05300
C344        C  0.37059372  0.22026819  0.93869785    -0.09200
C345        C  0.37211363  0.22650704  0.89821983     0.06100
C346        C  0.39161878  0.25747108  0.88775987    -0.13600
Br347      Br  0.48016680  0.31395928  0.90204739    -0.05700
Br348      Br  0.39427500  0.37980045  0.90030349    -0.00100
Br349      Br  0.38973859  0.23588631  0.02318693     0.00400
Br350      Br  0.39339223  0.26633345  0.83259473    -0.04000
Br351      Br  0.51359545  0.39082918  0.88991192     0.00500
Br352      Br  0.36289729  0.30494932  0.91694286    -0.03300
Br353      Br  0.43445542  0.30966892  0.99858630    -0.04200
Br354      Br  0.34761486  0.19261624  0.85704779    -0.00200
C355        C  0.10053427  0.03575631  0.91021355     0.01200
C356        C  0.11942084  0.06105160  0.88660322     0.04000
C357        C  0.15062425  0.08244301  0.89787488    -0.12000
C358        C  0.16477884  0.07649713  0.92880289     0.23300
C359        C  0.14684374  0.05103953  0.95157044    -0.12600
C360        C  0.11473828  0.03188597  0.94396562     0.04800
C361        C  0.19891136  0.09516321  0.93472253     0.27200
C362        C  0.21692168  0.08942108  0.90706001    -0.13300
C363        C  0.24909198  0.10632394  0.91263890     0.05300
C364        C  0.26348854  0.12805619  0.94687779    -0.09200
C365        C  0.24561389  0.13425338  0.97424233     0.06100
C366        C  0.21341950  0.11824266  0.96778104    -0.13600
Br367      Br  0.16678713  0.04172433  0.99236173    -0.05700
Br368      Br  0.10526831  0.06584847  0.83592311    -0.00100
Br369      Br  0.27358767  0.10022736  0.87270526     0.00400
Br370      Br  0.18908995  0.12781982  0.00404735    -0.04000
Br371      Br  0.09142635  0.00115945  0.98132707     0.00500
Br372      Br  0.17466917  0.11997225  0.87034374    -0.03300
Br373      Br  0.19743873  0.05770811  0.86186342    -0.04200
Br374      Br  0.26514054  0.16378247  0.02124536    -0.00200
C375        C  0.29464840  0.63799072  0.95365246     0.03000
C376        C  0.30978206  0.62215402  0.96260313    -0.13100
C377        C  0.34185595  0.63756273  0.96243574     0.00500
C378        C  0.35913866  0.66973548  0.95654956    -0.11700
C379        C  0.34445647  0.68617726  0.94899627     0.03000
C380        C  0.31221291  0.67016260  0.94683049    -0.11100
H381        H  0.29650497  0.59719265  0.96699792     0.08600
H382        H  0.38396349  0.68163692  0.95618380     0.06100
H383        H  0.30088598  0.68255628  0.93918000     0.06000
C384        C  0.30448595  0.65181380  0.45379220     0.03000
C385        C  0.31847892  0.63389518  0.45318597    -0.13100
C386        C  0.35005079  0.64824602  0.44854633     0.00500
C387        C  0.36751771  0.68051553  0.44314696    -0.11700
C388        C  0.35401232  0.69910945  0.44516923     0.03000
C389        C  0.32243045  0.68460426  0.45179101    -0.11100
H390        H  0.30461963  0.60856327  0.45513724     0.08600
H391        H  0.39166537  0.69106988  0.43720202     0.06100
H392        H  0.31151411  0.69846992  0.45352055     0.06000
C393        C  0.18257417  0.84189763  0.77952810     0.03000
C394        C  0.16904082  0.80946178  0.78306130    -0.13100
C395        C  0.13712889  0.78882950  0.77752373     0.00500
C396        C  0.11870646  0.80141601  0.76944245    -0.11700
C397        C  0.13204421  0.83422306  0.76851457     0.03000
C398        C  0.16398786  0.85429047  0.77282132    -0.11100
H399        H  0.18355443  0.80024128  0.78999833     0.08600
H400        H  0.09407453  0.78600955  0.76545547     0.06100
H401        H  0.17432353  0.87960592  0.77195897     0.06000
C402        C  0.21063637  0.85565626  0.26089458     0.03000
C403        C  0.19659302  0.82314880  0.26541072    -0.13100
C404        C  0.16526548  0.80510826  0.27349320     0.00500
C405        C  0.14788721  0.81984664  0.27665310    -0.11700
C406        C  0.16158845  0.85229404  0.27190772     0.03000
C407        C  0.19285446  0.86984870  0.26331612    -0.11100
H408        H  0.21041511  0.81230879  0.26479604     0.08600
H409        H  0.12404717  0.80637171  0.28442013     0.06100
H410        H  0.20382385  0.89508296  0.26111805     0.06000
O411        O  0.04255324  0.98866314  0.79985134    -0.80300
O412        O  0.42117872  0.94451819  0.84037170    -0.80300
O413        O  0.49085982  0.93802896  0.91628746    -0.80300
O414        O  0.47838141  0.51395737  0.78407687    -0.80200
O415        O  0.45407425  0.92268546  0.87223124    -0.80300
O416        O  0.98496122  0.47335911  0.77804678    -0.80300
O417        O  0.42681162  0.99113001  0.84095808    -0.80300
O418        O  0.01897988  0.95526902  0.84543567    -0.80300
C419        C  0.03549335  0.96308828  0.81413542     1.09400
C420        C  0.41093598  0.96151444  0.83109920     1.09300
C421        C  0.46678965  0.91567672  0.89771582     1.09500
C422        C  0.47494974  0.98962896  0.77202333     1.09300
O423        O  0.03360929  0.53602622  0.80414712    -0.80300
O424        O  0.46133133  0.96139952  0.94900597    -0.80300
O425        O  0.04982098  0.48266780  0.90431561    -0.80300
O426        O  0.46749783  0.52933555  0.90052272    -0.80200
O427        O  0.42790973  0.48161944  0.90501300    -0.80300
O428        O  0.05261403  0.51832459  0.86707275    -0.80300
O429        O  0.01827623  0.55422502  0.85449588    -0.80200
O430        O  0.00886017  0.00073954  0.94668937    -0.80300
Co431      Co  0.01596340  0.49309239  0.82382580     1.51500
Co432      Co  0.44305021  0.95373098  0.89234898     1.51700
Co433      Co  0.01351929  0.98097110  0.89500123     1.51600
Co434      Co  0.47444094  0.52094218  0.84409096     1.51500
O435        O  0.48164841  0.98787726  0.87015023    -1.42200
C436        C  0.03574462  0.55941540  0.82564075     1.09400
C437        C  0.48586571  0.98403042  0.96730200     1.09500
C438        C  0.06573261  0.50969346  0.89169432     1.09400
C439        C  0.44166829  0.51132303  0.91462092     1.09400
O440        O  0.06821413  0.00526803  0.32597207    -0.80300
O441        O  0.44178906  0.96414905  0.32878653    -0.80300
O442        O  0.49613331  0.95260944  0.42551218    -0.80300
O443        O  0.50743271  0.53265400  0.28560849    -0.80200
O444        O  0.46481264  0.93740904  0.37356583    -0.80300
O445        O  0.01211099  0.49109219  0.28600824    -0.80300
O446        O  0.45135673  0.01236035  0.32635399    -0.80300
O447        O  0.03707560  0.97123356  0.36624810    -0.80300
C448        C  0.05876425  0.97942840  0.34085782     1.09400
C449        C  0.43547659  0.98295925  0.31450322     1.09300
C450        C  0.47538641  0.93047790  0.40200661     1.09500
C451        C  0.50656680  0.00928301  0.27566231     1.09300
O452        O  0.05892306  0.55390828  0.31865187    -0.80300
O453        O  0.46375099  0.97546817  0.44588109    -0.80300
O454        O  0.05659488  0.50168604  0.43552266    -0.80300
O455        O  0.48145737  0.54533841  0.39530344    -0.80200
O456        O  0.44004699  0.49820337  0.39024185    -0.80300
O457        O  0.06826383  0.53361861  0.38721854    -0.80300
O458        O  0.03761498  0.56931041  0.36355081    -0.80200
O459        O  0.01121550  0.01543912  0.45388243    -0.80300
Co460      Co  0.03703260  0.50961603  0.33746387     1.51500
Co461      Co  0.45498767  0.97061575  0.38560283     1.51700
Co462      Co  0.02377431  0.99621925  0.40866479     1.51600
Co463      Co  0.49553531  0.53825059  0.34280728     1.51500
O464        O  0.49791791  0.00401846  0.37209284    -1.42200
C465        C  0.05760808  0.57644206  0.33782409     1.09400
C466        C  0.48550186  0.99779537  0.46883860     1.09500
C467        C  0.07609756  0.52589339  0.41909662     1.09400
C468        C  0.45397434  0.52708948  0.40404190     1.09400
C469        C  0.48123688  0.00035341  0.51377099     0.01200
C470        C  0.00520692  0.52471621  0.53232758     0.04000
C471        C  0.00155888  0.52324327  0.57419174    -0.12000
C472        C  0.47280227  0.99499060  0.59814764     0.23300
C473        C  0.44735769  0.97969312  0.57060150    -0.12600
C474        C  0.45127237  0.98377765  0.52924134     0.04800
C475        C  0.46909873  0.98984694  0.64198642     0.27200
C476        C  0.98510389  0.47902409  0.64796057    -0.13300
C477        C  0.98625061  0.47644201  0.68955971     0.05300
C478        C  0.46888903  0.98556211  0.72683264    -0.09200
C479        C  0.45569408  0.00124424  0.70930947     0.06100
C480        C  0.45731597  0.00471584  0.66772756    -0.13600
Br481      Br  0.40702651  0.95176593  0.58953296    -0.05700
Br482      Br  0.04446121  0.55700825  0.51492292    -0.00100
Br483      Br  0.00863581  0.45771285  0.70711909     0.00400
Br484      Br  0.44468464  0.03126019  0.64610808    -0.04000
Br485      Br  0.41470915  0.96762221  0.49513246     0.00500
Br486      Br  0.03512272  0.55231907  0.61167537    -0.03300
Br487      Br  0.00247151  0.46097593  0.61071916    -0.04200
Br488      Br  0.43365006  0.01693129  0.74095755    -0.00200
C489        C  0.48812617  0.98860926  0.01307930     0.01200
C490        C  0.01145762  0.51484178  0.02460422     0.04000
C491        C  0.01399049  0.51814101  0.06715135    -0.12000
C492        C  0.49440862  0.99390425  0.09906912     0.23300
C493        C  0.46746605  0.96925397  0.07868441    -0.12600
C494        C  0.46410087  0.96644763  0.03635106     0.04800
C495        C  0.49712297  0.99719085  0.14413643     0.27200
C496        C  0.00703726  0.98011347  0.16441761    -0.13300
C497        C  0.00943512  0.98316052  0.20691865     0.05300
C498        C  0.50214845  0.00391654  0.23018371    -0.09200
C499        C  0.49144503  0.02044575  0.20892847     0.06100
C500        C  0.48894877  0.01687339  0.16653570    -0.13600
Br501      Br  0.43479134  0.93932002  0.10977311    -0.05700
Br502      Br  0.03957514  0.55102678  0.99708780    -0.00100
Br503      Br  0.02319580  0.95848629  0.23148045     0.00400
Br504      Br  0.47368556  0.03871119  0.13825692    -0.04000
Br505      Br  0.42538725  0.93179540  0.01261467     0.00500
Br506      Br  0.04547250  0.55737967  0.09567921    -0.03300
Br507      Br  0.01731294  0.95237912  0.13326944    -0.04200
Br508      Br  0.47895998  0.04794091  0.23596217    -0.00200
C509        C  0.15143510  0.77160547  0.28257130     0.01200
C510        C  0.14718522  0.76420441  0.32270970     0.04000
C511        C  0.13364509  0.73248752  0.33150911    -0.12000
C512        C  0.12420021  0.70783705  0.30027331     0.23300
C513        C  0.12861765  0.71524454  0.26015123    -0.12600
C514        C  0.14239230  0.74701572  0.25135152     0.04800
C515        C  0.10757141  0.67401825  0.30944038     0.27200
C516        C  0.12344749  0.65807449  0.31439525    -0.13300
C517        C  0.10733136  0.62597319  0.32267529     0.05300
C518        C  0.07520597  0.60976628  0.32695505    -0.09200
C519        C  0.05939973  0.62593974  0.32167547     0.06100
C520        C  0.07552056  0.65774609  0.31293872    -0.13600
Br521      Br  0.11472849  0.68155811  0.21725907    -0.05700
Br522      Br  0.16011834  0.79767245  0.36574986    -0.00100
Br523      Br  0.12952940  0.60472807  0.32940042     0.00400
Br524      Br  0.05365422  0.67933401  0.30549964    -0.04000
Br525      Br  0.14817205  0.75687207  0.19644759     0.00500
Br526      Br  0.12729304  0.72255325  0.38638903    -0.03300
Br527      Br  0.16743352  0.68063973  0.31046069    -0.04200
Br528      Br  0.51517983  0.60458210  0.32426915    -0.00200
C529        C  0.24468017  0.87592165  0.26052527     0.01200
C530        C  0.25960729  0.88862765  0.22526170     0.04000
C531        C  0.29195976  0.90850086  0.22603400    -0.12000
C532        C  0.30946707  0.91550513  0.26199316     0.23300
C533        C  0.29445164  0.90270939  0.29707629    -0.12600
C534        C  0.26227444  0.88337500  0.29648775     0.04800
C535        C  0.34370227  0.93539568  0.26360606     0.27200
C536        C  0.36110947  0.92081984  0.25851291    -0.13300
C537        C  0.39263060  0.93788372  0.26998912     0.05300
C538        C  0.40675010  0.96946618  0.28835155    -0.09200
C539        C  0.39030514  0.98544429  0.28695370     0.06100
C540        C  0.35873392  0.96817523  0.27523495    -0.13600
Br541      Br  0.31810264  0.91116757  0.34611221    -0.05700
Br542      Br  0.23573909  0.87822596  0.17590051    -0.00100
Br543      Br  0.41615035  0.91763558  0.25960071     0.00400
Br544      Br  0.33527269  0.98876849  0.27764911    -0.04000
Br545      Br  0.24224314  0.86776762  0.34555309     0.00500
Br546      Br  0.31248201  0.92591098  0.17803268    -0.03300
Br547      Br  0.34099204  0.87665279  0.23838602    -0.04200
Br548      Br  0.40801676  0.52701213  0.30233498    -0.00200
C549        C  0.07177422  0.95858040  0.32822514     0.01200
C550        C  0.09371236  0.96673244  0.29758063     0.04000
C551        C  0.10648155  0.94777866  0.28696680    -0.12000
C552        C  0.09723424  0.92001497  0.30533066     0.23300
C553        C  0.07512521  0.91113579  0.33462057    -0.12600
C554        C  0.06341364  0.93070793  0.34728961     0.04800
C555        C  0.11301795  0.90184670  0.29673057     0.27200
C556        C  0.10413287  0.87940409  0.26284021    -0.13300
C557        C  0.11992556  0.86316700  0.25453450     0.05300
C558        C  0.14435834  0.86884936  0.28049281    -0.09200
C559        C  0.15268113  0.89076950  0.31490193     0.06100
C560        C  0.13738574  0.90745943  0.32264301    -0.13600
Br561      Br  0.06144417  0.87190018  0.35793424    -0.05700
Br562      Br  0.10842913  0.00427517  0.26971774    -0.00100
Br563      Br  0.10877014  0.83391708  0.20691576     0.00400
Br564      Br  0.15001672  0.93844251  0.36875946    -0.04000
Br565      Br  0.03866635  0.91956646  0.39380700     0.00500
Br566      Br  0.13773798  0.96014754  0.24768124    -0.03300
Br567      Br  0.07031818  0.87106570  0.22790835    -0.04200
Br568      Br  0.18442704  0.89725490  0.35249213    -0.00200
C569        C  0.05616062  0.59228136  0.81523382     0.01200
C570        C  0.07660945  0.61631253  0.84461086     0.04000
C571        C  0.09334622  0.64808600  0.83581409    -0.12000
C572        C  0.08771704  0.65636621  0.79904033     0.23300
C573        C  0.06785547  0.63241894  0.76940149    -0.12600
C574        C  0.05322419  0.60043113  0.77681549     0.04800
C575        C  0.10033232  0.69019172  0.79300466     0.27200
C576        C  0.08793547  0.70683074  0.81357298    -0.13300
C577        C  0.10034403  0.73915297  0.80941925     0.05300
C578        C  0.12331399  0.75440566  0.78157216    -0.09200
C579        C  0.13419506  0.73692607  0.75893288     0.06100
C580        C  0.12384326  0.70547222  0.76614073    -0.13600
Br581      Br  0.05890932  0.64355811  0.71957697    -0.05700
Br582      Br  0.08164003  0.60596526  0.89709108    -0.00100
Br583      Br  0.08692768  0.76237677  0.84434624     0.00400
Br584      Br  0.14219296  0.68339921  0.73973066    -0.04000
Br585      Br  0.02796009  0.56848452  0.73436911     0.00500
Br586      Br  0.12355198  0.68057437  0.87436644    -0.03300
Br587      Br  0.05345708  0.68503953  0.84716315    -0.04200
Br588      Br  0.16194127  0.75515108  0.71627257    -0.00200
C589        C  0.21628278  0.86280894  0.78357258     0.01200
C590        C  0.23134835  0.87100644  0.82164177     0.04000
C591        C  0.26359931  0.88834292  0.82512020    -0.12000
C592        C  0.28084067  0.89773694  0.79056198     0.23300
C593        C  0.26578803  0.89067517  0.75265094    -0.12600
C594        C  0.23349083  0.87324961  0.74915575     0.04800
C595        C  0.31481661  0.91468866  0.79445115     0.27200
C596        C  0.33191639  0.94777511  0.80220262    -0.13300
C597        C  0.36364931  0.96366034  0.81200118     0.05300
C598        C  0.37883724  0.94624537  0.81310570    -0.09200
C599        C  0.36161273  0.91305523  0.80075553     0.06100
C600        C  0.32968520  0.89745238  0.79269680    -0.13600
Br601      Br  0.28955438  0.90451733  0.70566907    -0.05700
Br602      Br  0.20767770  0.85886606  0.86899707    -0.00100
Br603      Br  0.38435691  0.00904951  0.82545381     0.00400
Br604      Br  0.30559537  0.85192488  0.78066033    -0.04000
Br605      Br  0.21277034  0.86300708  0.69718484     0.00500
Br606      Br  0.28430113  0.89888978  0.87715241    -0.03300
Br607      Br  0.31101221  0.97099486  0.80082431    -0.04200
Br608      Br  0.38050654  0.88771658  0.79366308    -0.00200
C609        C  0.04576060  0.94202344  0.79520063     0.01200
C610        C  0.07686234  0.95475548  0.78552328     0.04000
C611        C  0.08774430  0.93450409  0.77359951    -0.12000
C612        C  0.06771861  0.90146585  0.77102267     0.23300
C613        C  0.03623245  0.88867219  0.77712014    -0.12600
C614        C  0.02522745  0.90883043  0.78937629     0.04800
C615        C  0.08083700  0.88078680  0.76888358     0.27200
C616        C  0.08933785  0.87197490  0.73210011    -0.13300
C617        C  0.10546416  0.85589094  0.73165160     0.05300
C618        C  0.11264583  0.84826481  0.76787663    -0.09200
C619        C  0.10346532  0.85641446  0.80445827     0.06100
C620        C  0.08760981  0.87260939  0.80496289    -0.13600
Br621      Br  0.00866492  0.84333908  0.77047707    -0.05700
Br622      Br  0.10632843  0.49734174  0.78128502    -0.00100
Br623      Br  0.11901683  0.84552555  0.68190648     0.00400
Br624      Br  0.07673413  0.88530348  0.85552584    -0.04000
Br625      Br  0.48198924  0.89066582  0.79784537     0.00500
Br626      Br  0.13079116  0.95191151  0.76372343    -0.03300
Br627      Br  0.07987320  0.88304441  0.68280664    -0.04200
Br628      Br  0.11441330  0.84726258  0.85432971    -0.00200
C629        C  0.43695310  0.54048017  0.42576594     0.01200
C630        C  0.40432675  0.52452170  0.42182918     0.04000
C631        C  0.38942909  0.54129926  0.43122207    -0.12000
C632        C  0.40667971  0.57351870  0.44531190     0.23300
C633        C  0.43823112  0.58815742  0.45483019    -0.12600
C634        C  0.45330350  0.57145566  0.44610029     0.04800
C635        C  0.39212322  0.59262283  0.44659267     0.27200
C636        C  0.39130228  0.60628403  0.41192867    -0.13300
C637        C  0.37718785  0.62419724  0.41238023     0.05300
C638        C  0.36453960  0.62909162  0.44787346    -0.09200
C639        C  0.36527599  0.61524645  0.48255709     0.06100
C640        C  0.37874533  0.59665841  0.48169648    -0.13600
Br641      Br  0.46094244  0.63180325  0.47755098    -0.05700
Br642      Br  0.37886886  0.48016877  0.40291133    -0.00100
Br643      Br  0.37390931  0.64064678  0.36377745     0.00400
Br644      Br  0.37863732  0.57629036  0.52816035    -0.04000
Br645      Br  0.49602122  0.59124052  0.46341787     0.00500
Br646      Br  0.34544044  0.52095860  0.42233912    -0.03300
Br647      Br  0.40924848  0.60000822  0.36365215    -0.04200
Br648      Br  0.34861765  0.62234163  0.53159614    -0.00200
C649        C  0.37276348  0.73326230  0.43867291     0.01200
C650        C  0.36273673  0.74593408  0.41026520     0.04000
C651        C  0.37998091  0.77847653  0.40561458    -0.12000
C652        C  0.40921098  0.79769107  0.42501447     0.23300
C653        C  0.42032428  0.78470521  0.45098988    -0.12600
C654        C  0.40135662  0.75328428  0.45996179     0.04800
C655        C  0.42774894  0.83186969  0.41953504     0.27200
C656        C  0.44131467  0.84188170  0.38273751    -0.13300
C657        C  0.45701070  0.87422382  0.37690003     0.05300
C658        C  0.46150732  0.89690905  0.40904290    -0.09200
C659        C  0.44961186  0.88686352  0.44670609     0.06100
C660        C  0.43156164  0.85439899  0.45128471    -0.13600
Br661      Br  0.46173805  0.81009054  0.47411665    -0.05700
Br662      Br  0.32682935  0.71901433  0.37509059    -0.00100
Br663      Br  0.47250079  0.88721041  0.32478317     0.00400
Br664      Br  0.41059735  0.84066984  0.50047358    -0.04000
Br665      Br  0.41404394  0.73908905  0.50372744     0.00500
Br666      Br  0.36318832  0.79695278  0.37347587    -0.03300
Br667      Br  0.43834188  0.81123243  0.34035156    -0.04200
Br668      Br  0.45634737  0.91694939  0.49199417    -0.00200
C669        C  0.10818419  0.54523097  0.43515274     0.01200
C670        C  0.12479694  0.53054771  0.44350362     0.04000
C671        C  0.15671651  0.54908715  0.45147405    -0.12000
C672        C  0.17230781  0.58197119  0.44888395     0.23300
C673        C  0.15572603  0.59677119  0.44207531    -0.12600
C674        C  0.12359307  0.57856185  0.43685086     0.04800
C675        C  0.20624153  0.60055824  0.45029682     0.27200
C676        C  0.22283888  0.61975821  0.48537675    -0.13300
C677        C  0.25512193  0.63746955  0.48627505     0.05300
C678        C  0.27072209  0.63539147  0.45237926    -0.09200
C679        C  0.25407262  0.61635626  0.41716700     0.06100
C680        C  0.22186491  0.59905683  0.41608465    -0.13600
Br681      Br  0.17725356  0.64171731  0.43724923    -0.05700
Br682      Br  0.10680447  0.98716021  0.44550623    -0.00100
Br683      Br  0.27800191  0.66391220  0.53411595     0.00400
Br684      Br  0.19904454  0.57318537  0.36772272    -0.04000
Br685      Br  0.10075307  0.59951262  0.43317467     0.00500
Br686      Br  0.17957659  0.52941106  0.46379939    -0.03300
Br687      Br  0.20124143  0.62108943  0.53233056    -0.04200
Br688      Br  0.27539446  0.61436325  0.37005626    -0.00200
C689        C  0.35685818  0.61883632  0.96204780     0.01200
C690        C  0.36554588  0.61039371  0.92521916     0.04000
C691        C  0.37914846  0.59194434  0.92401259    -0.12000
C692        C  0.38333759  0.58100697  0.95940248     0.23300
C693        C  0.37458473  0.58937150  0.99627690    -0.12600
C694        C  0.36169192  0.60863086  0.99765116     0.04800
C695        C  0.39721407  0.56096789  0.95722208     0.27200
C696        C  0.37910656  0.52846536  0.94423413    -0.13300
C697        C  0.39308168  0.51059253  0.93497242     0.05300
C698        C  0.42569681  0.52573823  0.93730337    -0.09200
C699        C  0.44307817  0.55723935  0.95578764     0.06900
C700        C  0.42895133  0.57491023  0.96490368    -0.13600
Br701      Br  0.38020231  0.57430626  0.04463232    -0.05700
Br702      Br  0.35817378  0.62350716  0.87607045    -0.00100
Br703      Br  0.36658083  0.46583771  0.91833742     0.00400
Br704      Br  0.45335627  0.61899527  0.98545476    -0.04000
Br705      Br  0.35126783  0.62172149  0.04816059     0.00500
Br706      Br  0.39241500  0.58198995  0.87375718    -0.03300
Br707      Br  0.33515825  0.50912678  0.93672542    -0.04200
Br708      Br  0.48620294  0.57644149  0.96989628    -0.00200
C709        C  0.45119485  0.88256386  0.90799730     0.01200
C710        C  0.41906421  0.86608446  0.91313847     0.04000
C711        C  0.40327010  0.83394717  0.91971291    -0.12000
C712        C  0.41925098  0.81794142  0.92141586     0.23300
C713        C  0.45127501  0.83425335  0.91696748    -0.12600
C714        C  0.46731577  0.86663278  0.91058294     0.04800
C715        C  0.40189410  0.78395551  0.92830853     0.27200
C716        C  0.39631209  0.77529717  0.96777635    -0.13300
C717        C  0.37683631  0.74333910  0.97447298     0.05300
C718        C  0.36325329  0.71989728  0.94174030    -0.09200
C719        C  0.36901101  0.72850313  0.90224029     0.06100
C720        C  0.38822222  0.76052908  0.89553130    -0.13600
Br721      Br  0.47281981  0.81186463  0.91874136    -0.05700
Br722      Br  0.39610737  0.88727453  0.91272161    -0.00100
Br723      Br  0.36790787  0.73161822  0.02845583     0.00400
Br724      Br  0.39541029  0.77259398  0.84155307    -0.04000
Br725      Br  0.51097957  0.88858636  0.90358627     0.00500
Br726      Br  0.35936862  0.81143159  0.92604791    -0.03300
Br727      Br  0.41494218  0.80746773  0.01253997    -0.04200
Br728      Br  0.35049399  0.69638834  0.85742684    -0.00200
C729        C  0.09870082  0.53137941  0.90571764     0.01200
C730        C  0.11962844  0.55575101  0.88238108     0.04000
C731        C  0.15089821  0.57473406  0.89462336    -0.12000
C732        C  0.16221391  0.56849090  0.92842844     0.23300
C733        C  0.14185986  0.54488306  0.95212984    -0.12600
C734        C  0.11011598  0.52719651  0.94186211     0.04800
C735        C  0.19590482  0.58541310  0.93699645     0.27200
C736        C  0.21357512  0.57584882  0.91427653    -0.13300
C737        C  0.24578564  0.59356252  0.91889577     0.05300
C738        C  0.26057323  0.62000901  0.94810707    -0.09200
C739        C  0.24267418  0.62893125  0.97180934     0.06100
C740        C  0.21045442  0.61201898  0.96565733    -0.13600
Br741      Br  0.15794771  0.53621530  0.99806805    -0.05700
Br742      Br  0.10750354  0.56300255  0.83186515    -0.00100
Br743      Br  0.26935026  0.58254138  0.88286214     0.00400
Br744      Br  0.18608639  0.62546725  0.99581905    -0.04000
Br745      Br  0.08307493  0.49852072  0.97920173     0.00500
Br746      Br  0.17900404  0.60914765  0.86438847    -0.03300
Br747      Br  0.19337983  0.53846552  0.87629932    -0.04200
Br748      Br  0.26197754  0.66369582  0.01349531    -0.00200
C749        C  0.79715642  0.14316487  0.95431034     0.03000
C750        C  0.80921119  0.12441708  0.96321480    -0.13100
C751        C  0.84103069  0.13711909  0.96477999     0.00500
C752        C  0.86093065  0.16900272  0.95883618    -0.11700
C753        C  0.84927751  0.18793043  0.94980618     0.03000
C754        C  0.81732042  0.17502533  0.94781310    -0.11100
H755        H  0.79379182  0.09947035  0.96644126     0.08600
H756        H  0.88549677  0.17856641  0.95881431     0.06100
H757        H  0.80818511  0.18931606  0.93953586     0.06000
C758        C  0.80146646  0.15636496  0.47361581     0.03000
C759        C  0.81445517  0.13744369  0.46949587    -0.13100
C760        C  0.84575334  0.15090957  0.46293694     0.00500
C761        C  0.86386530  0.18348649  0.45904731    -0.11700
C762        C  0.85122199  0.20290440  0.46331709     0.03000
C763        C  0.82007650  0.18919968  0.47232424    -0.11100
H764        H  0.79990312  0.11199100  0.46982144     0.08600
H765        H  0.88766149  0.19350278  0.45149370     0.06100
H766        H  0.80981338  0.20367436  0.47557312     0.06000
C767        C  0.68309141  0.34064028  0.78453489     0.03000
C768        C  0.66965076  0.30834417  0.78887053    -0.13100
C769        C  0.63772213  0.28777256  0.78480203     0.00500
C770        C  0.61906113  0.29980404  0.77569513    -0.11700
C771        C  0.63220940  0.33234786  0.77303087     0.03000
C772        C  0.66416189  0.35266432  0.77749157    -0.11100
H773        H  0.68422026  0.29918105  0.79566650     0.08600
H774        H  0.59440089  0.28422148  0.77243347     0.06100
H775        H  0.67427004  0.37787217  0.77587788     0.06000
C776        C  0.71313665  0.35453144  0.27346030     0.03000
C777        C  0.69880532  0.32217969  0.27827876    -0.13100
C778        C  0.66798692  0.30510744  0.28837903     0.00500
C779        C  0.65132956  0.32047687  0.29331824    -0.11700
C780        C  0.66538616  0.35279648  0.28790292     0.03000
C781        C  0.69626080  0.36962521  0.27765497    -0.11100
H782        H  0.71197501  0.31060784  0.27574933     0.08600
H783        H  0.62767078  0.30745584  0.30194437     0.06100
H784        H  0.70749029  0.39475875  0.27454826     0.06000
O785        O  0.54434058  0.48778885  0.79213215    -0.80300
O786        O  0.92133160  0.44480200  0.83024821    -0.80300
O787        O  0.98949391  0.43558217  0.90537631    -0.80300
O788        O  0.97565471  0.01274989  0.79329285    -0.80200
O789        O  0.95212786  0.42054098  0.86228173    -0.80300
O790        O  0.48262967  0.97258770  0.78866184    -0.80300
O791        O  0.92910298  0.49250321  0.83082135    -0.80300
O792        O  0.51778177  0.45277805  0.83466669    -0.80300
C793        C  0.53575709  0.46131492  0.80482888     1.09400
C794        C  0.91237315  0.46291804  0.82094085     1.09300
C795        C  0.96561565  0.41338383  0.88650547     1.09500
C796        C  0.97782732  0.49115695  0.76211805     1.09300
O797        O  0.53091432  0.03650877  0.81289728    -0.80300
O798        O  0.96074362  0.46002302  0.93928973    -0.80300
O799        O  0.55145195  0.98732739  0.91440025    -0.80300
O800        O  0.96551497  0.02930800  0.90978258    -0.80200
O801        O  0.92699643  0.98114113  0.91512812    -0.80300
O802        O  0.55260043  0.02051958  0.87422461    -0.80300
O803        O  0.51550449  0.05403056  0.86391980    -0.80200
O804        O  0.50902480  0.49813264  0.93682623    -0.80300
Co805      Co  0.51471858  0.99385181  0.83285704     1.51500
Co806      Co  0.94289015  0.45316926  0.88232927     1.51700
Co807      Co  0.51295525  0.47841498  0.88471468     1.51600
Co808      Co  0.97215847  0.02043329  0.85349105     1.51500
O809        O  0.98216907  0.48692327  0.86005215    -1.42200
C810        C  0.53300047  0.05956025  0.83521579     1.09400
C811        C  0.98601555  0.48161813  0.95743148     1.09500
C812        C  0.56686068  0.01335287  0.89911186     1.09400
C813        C  0.94003666  0.01085483  0.92426056     1.09400
O814        O  0.56819207  0.50327697  0.31671689    -0.80300
O815        O  0.94398846  0.46290250  0.32020936    -0.80300
O816        O  0.99736452  0.45324076  0.41973536    -0.80300
O817        O  0.00680489  0.03295874  0.29441737    -0.80200
O818        O  0.96641216  0.43634394  0.36728734    -0.80300
O819        O  0.51183690  0.99177063  0.29546504    -0.80300
O820        O  0.95245504  0.51087071  0.31874824    -0.80300
O821        O  0.53876114  0.47171734  0.36078375    -0.80300
C822        C  0.56008731  0.47904922  0.33502483     1.09400
C823        C  0.93710275  0.48152034  0.30660172     1.09300
C824        C  0.97628713  0.43028081  0.39737313     1.09500
C825        C  0.00709729  0.50893641  0.26643468     1.09300
O826        O  0.55803702  0.05435767  0.32782105    -0.80300
O827        O  0.96445549  0.47549025  0.43767794    -0.80300
O828        O  0.55562844  0.00012949  0.44186651    -0.80300
O829        O  0.98015362  0.04692791  0.40264560    -0.80200
O830        O  0.93902780  0.99965392  0.39961755    -0.80300
O831        O  0.56717706  0.03457771  0.39709361    -0.80300
O832        O  0.53661598  0.06974260  0.37241713    -0.80200
O833        O  0.51149451  0.51626188  0.44550608    -0.80300
Co834      Co  0.53643993  0.01058727  0.34693603     1.51500
Co835      Co  0.95629567  0.46954144  0.37722336     1.51700
Co836      Co  0.52475837  0.49673382  0.40165565     1.51600
Co837      Co  0.99454594  0.03908846  0.35091708     1.51500
O838        O  0.99907209  0.50324107  0.36357645    -1.42200
C839        C  0.55682653  0.07682190  0.34705024     1.09400
C840        C  0.98554593  0.49890722  0.46014343     1.09500
C841        C  0.57489288  0.02581443  0.42803850     1.09400
C842        C  0.95234078  0.02916296  0.41024052     1.09400
C843        C  0.98050259  0.50323683  0.50454247     0.01200
C844        C  0.50673011  0.01665205  0.54218019     0.04000
C845        C  0.50222284  0.01470181  0.58386541    -0.12000
C846        C  0.97366211  0.50031914  0.58927276     0.23300
C847        C  0.94822347  0.48134318  0.56238628    -0.12600
C848        C  0.95118141  0.48361957  0.52059917     0.04800
C849        C  0.97179561  0.49511501  0.63302634     0.27200
C850        C  0.47829531  0.97060319  0.65817273    -0.13300
C851        C  0.47892572  0.96892729  0.70012072     0.05300
C852        C  0.97238775  0.48848047  0.71708774    -0.09200
C853        C  0.95627602  0.50175680  0.70093250     0.06100
C854        C  0.95729877  0.50636999  0.65972965    -0.13600
Br855      Br  0.90940056  0.45097639  0.58298698    -0.05700
Br856      Br  0.54855817  0.04123009  0.52600771    -0.00100
Br857      Br  0.49433358  0.94386088  0.71897692     0.00400
Br858      Br  0.94005677  0.52957908  0.63997791    -0.04000
Br859      Br  0.91399745  0.46005700  0.48677593     0.00500
Br860      Br  0.53660532  0.03883726  0.62223149    -0.03300
Br861      Br  0.49061653  0.94682962  0.62211763    -0.04200
Br862      Br  0.93152327  0.51292521  0.73421332    -0.00200
C863        C  0.98887645  0.48573414  0.00305814     0.01200
C864        C  0.51477909  0.01433214  0.03455617     0.04000
C865        C  0.51788743  0.01646368  0.07692762    -0.12000
C866        C  0.99387131  0.49296093  0.08931893     0.23300
C867        C  0.97141250  0.46412370  0.06839643    -0.12600
C868        C  0.96948608  0.46007773  0.02589290     0.04800
C869        C  0.99674856  0.49652007  0.13460182     0.27200
C870        C  0.51137107  0.48374414  0.15471561    -0.13300
C871        C  0.51410446  0.48689162  0.19723162     0.05300
C872        C  0.00274747  0.50376746  0.22086209    -0.09200
C873        C  0.98804976  0.51668232  0.19999482     0.06100
C874        C  0.98481186  0.51262541  0.15751964    -0.13600
Br875      Br  0.94304636  0.42991805  0.09862160    -0.05700
Br876      Br  0.54718348  0.04843841  0.00782173    -0.00100
Br877      Br  0.53471643  0.46846848  0.22147842     0.00400
Br878      Br  0.96347936  0.52888551  0.13002575    -0.04000
Br879      Br  0.94190029  0.41782767  0.00043682     0.00500
Br880      Br  0.55453685  0.05064720  0.10549445    -0.03300
Br881      Br  0.52825530  0.46213761  0.12326904    -0.04200
Br882      Br  0.97129549  0.53982668  0.22807774    -0.00200
C883        C  0.65376701  0.27148777  0.29578683     0.01200
C884        C  0.65325332  0.26339322  0.33514797     0.04000
C885        C  0.63983399  0.23141607  0.34223309    -0.12000
C886        C  0.62663198  0.20740526  0.31002996     0.23300
C887        C  0.62748603  0.21554080  0.27059842    -0.12600
C888        C  0.64118266  0.24756156  0.26347802     0.04800
C889        C  0.60907781  0.17363045  0.31821714     0.27200
C890        C  0.62370306  0.15619670  0.32039576    -0.13300
C891        C  0.60684961  0.12448590  0.32978052     0.05300
C892        C  0.57514281  0.11001757  0.33662751    -0.09200
C893        C  0.56046772  0.12752838  0.33328390     0.06100
C894        C  0.57749574  0.15921815  0.32458137    -0.13600
Br895      Br  0.60899291  0.18264204  0.22663937    -0.05700
Br896      Br  0.67057784  0.29615666  0.37938693    -0.00100
Br897      Br  0.62767343  0.10163219  0.33504066     0.00400
Br898      Br  0.55758613  0.18327253  0.32134232    -0.04000
Br899      Br  0.64208843  0.25878571  0.20964860     0.00500
Br900      Br  0.63869899  0.22024497  0.39615846    -0.03300
Br901      Br  0.66690953  0.17610034  0.31076894    -0.04200
Br902      Br  0.01653446  0.10823550  0.33811199    -0.00200
C903        C  0.74670611  0.37346422  0.26935822     0.01200
C904        C  0.75919925  0.38451112  0.23238326     0.04000
C905        C  0.79128279  0.40365326  0.22959710    -0.12000
C906        C  0.81079064  0.41100547  0.26352878     0.23300
C907        C  0.79825493  0.39905078  0.30006373    -0.12600
C908        C  0.76631925  0.38090337  0.30321120     0.04800
C909        C  0.84454059  0.43181561  0.26195192     0.27200
C910        C  0.86274853  0.41848808  0.25352518    -0.13300
C911        C  0.89458834  0.43669703  0.26238161     0.05300
C912        C  0.90799174  0.46781269  0.28186041    -0.09200
C913        C  0.89032425  0.48257214  0.28412199     0.06100
C914        C  0.85855881  0.46433308  0.27445653    -0.13600
Br915      Br  0.82493764  0.40723712  0.34585061    -0.05700
Br916      Br  0.73236820  0.37287323  0.18562866    -0.00100
Br917      Br  0.91949136  0.41861643  0.24787641     0.00400
Br918      Br  0.83344575  0.48299667  0.28168317    -0.04000
Br919      Br  0.74944851  0.36720784  0.35445143     0.00500
Br920      Br  0.80869757  0.41990206  0.17967322    -0.03300
Br921      Br  0.84347447  0.37442951  0.23326996    -0.04200
Br922      Br  0.90959797  0.03048218  0.30181221    -0.00200
C923        C  0.57448156  0.45902197  0.32664386     0.01200
C924        C  0.59957067  0.46848058  0.30058862     0.04000
C925        C  0.61330859  0.45006852  0.29376791    -0.12000
C926        C  0.60229369  0.42190743  0.31187930     0.23300
C927        C  0.57765177  0.41207085  0.33727697    -0.12600
C928        C  0.56449281  0.43081010  0.34586463     0.04800
C929        C  0.61787986  0.40350726  0.30613984     0.27200
C930        C  0.60901281  0.38006161  0.27353408    -0.13300
C931        C  0.62429568  0.36319582  0.26775557     0.05300
C932        C  0.64838827  0.36956415  0.29477056    -0.09200
C933        C  0.65674539  0.39253184  0.32796782     0.06100
C934        C  0.64157588  0.40949488  0.33355573    -0.13600
Br935      Br  0.56243269  0.37261840  0.36089140    -0.05700
Br936      Br  0.61770390  0.50741913  0.27504356    -0.00100
Br937      Br  0.61291708  0.33211908  0.22204883     0.00400
Br938      Br  0.65312228  0.44101363  0.37883754    -0.04000
Br939      Br  0.53500336  0.41757156  0.38717673     0.00500
Br940      Br  0.64809741  0.46352824  0.26002998    -0.03300
Br941      Br  0.57589776  0.37122029  0.23687708    -0.04200
Br942      Br  0.68846773  0.40022390  0.36646560    -0.00200
C943        C  0.55349245  0.09255475  0.82635775     0.01200
C944        C  0.57506942  0.11530309  0.85593784     0.04000
C945        C  0.59290418  0.14721300  0.84826590    -0.12000
C946        C  0.58654401  0.15699874  0.81333954     0.23300
C947        C  0.56440614  0.13450926  0.78439280    -0.12600
C948        C  0.54910839  0.10221923  0.78991742     0.04800
C949        C  0.60118946  0.19101909  0.80804722     0.27200
C950        C  0.59053298  0.20912042  0.82905482    -0.13300
C951        C  0.60275879  0.24088663  0.82204674     0.05300
C952        C  0.62417586  0.25404271  0.79184918    -0.09200
C953        C  0.63402334  0.23534749  0.76996281     0.06100
C954        C  0.62351057  0.20439522  0.77929127    -0.13600
Br955      Br  0.55341947  0.14823718  0.73848526    -0.05700
Br956      Br  0.57957911  0.10325702  0.90752072    -0.00100
Br957      Br  0.59082300  0.26621705  0.85545053     0.00400
Br958      Br  0.63930974  0.17993985  0.75246935    -0.04000
Br959      Br  0.52067174  0.07198104  0.74827332     0.00500
Br960      Br  0.62564945  0.17768616  0.88567296    -0.03300
Br961      Br  0.55840854  0.18995147  0.86664850    -0.04200
Br962      Br  0.66023794  0.25102378  0.72526800    -0.00200
C963        C  0.71699579  0.36155832  0.78722633     0.01200
C964        C  0.73378493  0.36477088  0.82251612     0.04000
C965        C  0.76608224  0.38220039  0.82362422    -0.12000
C966        C  0.78172992  0.39744762  0.79010130     0.23300
C967        C  0.76508932  0.39532698  0.75546835    -0.12600
C968        C  0.73280269  0.37696148  0.75369053     0.04800
C969        C  0.81577102  0.41575707  0.79150877     0.27200
C970        C  0.83187442  0.44812810  0.80519451    -0.13300
C971        C  0.86410868  0.46493634  0.81026598     0.05300
C972        C  0.88036997  0.44879702  0.80365669    -0.09200
C973        C  0.86415133  0.41710518  0.78540568     0.06100
C974        C  0.83194560  0.40064526  0.77983868    -0.13600
Br975      Br  0.78678524  0.41741888  0.71037710    -0.05700
Br976      Br  0.71271118  0.34617494  0.86989047    -0.00100
Br977      Br  0.88462061  0.50985418  0.82644550     0.00400
Br978      Br  0.80953206  0.35690198  0.75742231    -0.04000
Br979      Br  0.71056537  0.37152920  0.70430947     0.00500
Br980      Br  0.78910651  0.38501704  0.87090288    -0.03300
Br981      Br  0.80923811  0.46893408  0.81870349    -0.04200
Br982      Br  0.88557830  0.39610553  0.76605133    -0.00200
C983        C  0.54590450  0.44008937  0.78587736     0.01200
C984        C  0.57710239  0.45242368  0.77686559     0.04000
C985        C  0.58788122  0.43179827  0.76678455    -0.12000
C986        C  0.56772983  0.39885597  0.76556215     0.23300
C987        C  0.53613058  0.38640495  0.77015395    -0.12600
C988        C  0.52514510  0.40694720  0.77999591     0.04800
C989        C  0.58076206  0.37820744  0.76647776     0.27200
C990        C  0.58698547  0.36552210  0.73084299    -0.13300
C991        C  0.60289295  0.34933198  0.73278679     0.05300
C992        C  0.61256709  0.34596076  0.77031313    -0.09200
C993        C  0.60540243  0.35771310  0.80584005     0.06100
C994        C  0.58963708  0.37385404  0.80393023    -0.13600
Br995      Br  0.50835721  0.34112526  0.76491362    -0.05700
Br996      Br  0.60593509  0.99977948  0.79222161    -0.00100
Br997      Br  0.61248228  0.33275156  0.68433361     0.00400
Br998      Br  0.58184561  0.39177005  0.85278690    -0.04000
Br999      Br  0.98158591  0.38947202  0.78456739     0.00500
Br1000     Br  0.63093317  0.44851845  0.75771216    -0.03300
Br1001     Br  0.57493864  0.37166088  0.67970073    -0.04200
Br1002     Br  0.61834910  0.35281023  0.85728214    -0.00200
C1003       C  0.93435816  0.04351291  0.42673425     0.01200
C1004       C  0.90201448  0.02781436  0.41860243     0.04000
C1005       C  0.88632638  0.04398018  0.42706155    -0.12000
C1006       C  0.90238710  0.07564117  0.44372974     0.23300
C1007       C  0.93379954  0.09071118  0.45456289    -0.12600
C1008       C  0.94972485  0.07469623  0.44677936     0.04800
C1009       C  0.88653470  0.09364966  0.44822328     0.27200
C1010       C  0.88577954  0.10992940  0.41635531    -0.13300
C1011       C  0.87165349  0.12791234  0.42074221     0.05300
C1012       C  0.85908840  0.13050781  0.45757702    -0.09200
C1013       C  0.85916371  0.11345087  0.48914553     0.06100
C1014       C  0.87252063  0.09471621  0.48419113    -0.13600
Br1015     Br  0.95507905  0.13397335  0.47890559    -0.05700
Br1016     Br  0.87801273  0.98467180  0.39432282    -0.00100
Br1017     Br  0.86825302  0.14762450  0.37548512     0.00400
Br1018     Br  0.87171277  0.07036475  0.52646969    -0.04000
Br1019     Br  0.99239721  0.09601793  0.46509059     0.00500
Br1020     Br  0.84272349  0.02335958  0.41435262    -0.03300
Br1021     Br  0.90416490  0.10743594  0.36662784    -0.04200
Br1022     Br  0.84204384  0.11647847  0.53978993    -0.00200
C1023       C  0.86991493  0.23674812  0.45488830     0.01200
C1024       C  0.85885432  0.24861028  0.42665411     0.04000
C1025       C  0.87614087  0.28070301  0.41957011    -0.12000
C1026       C  0.90633427  0.30015507  0.43608530     0.23300
C1027       C  0.91825286  0.28794784  0.46222309    -0.12600
C1028       C  0.89950403  0.25708823  0.47352755     0.04800
C1029       C  0.92540597  0.33351870  0.42636830     0.27200
C1030       C  0.93635109  0.34026072  0.38754786    -0.13300
C1031       C  0.95281622  0.37181687  0.37787418     0.05300
C1032       C  0.96098383  0.39710815  0.40802136    -0.09200
C1033       C  0.95182976  0.39015317  0.44767133     0.06100
C1034       C  0.93261991  0.35856978  0.45608932    -0.13600
Br1035     Br  0.96059653  0.31338727  0.48191819    -0.05700
Br1036     Br  0.82156182  0.22090028  0.39428145    -0.00100
Br1037     Br  0.96476764  0.37998170  0.32330107     0.00400
Br1038     Br  0.91476714  0.34954981  0.50796637    -0.04000
Br1039     Br  0.91417920  0.24381434  0.51619377     0.00500
Br1040     Br  0.85818004  0.29820642  0.38771714    -0.03300
Br1041     Br  0.92891321  0.30615111  0.34764113    -0.04200
Br1042     Br  0.96460734  0.42316326  0.49118637    -0.00200
C1043       C  0.60623800  0.04586492  0.44674043     0.01200
C1044       C  0.62403032  0.03230184  0.45427224     0.04000
C1045       C  0.65541581  0.05193788  0.46545432    -0.12000
C1046       C  0.66926608  0.08507942  0.46842805     0.23300
C1047       C  0.65123426  0.09862014  0.46378674    -0.12600
C1048       C  0.61968559  0.07905932  0.45340992     0.04800
C1049       C  0.70318090  0.10530834  0.47033648     0.27200
C1050       C  0.71970461  0.12019711  0.50715992    -0.13300
C1051       C  0.75205361  0.13823438  0.50825992     0.05300
C1052       C  0.76772862  0.14079685  0.47267080    -0.09200
C1053       C  0.75111714  0.12636808  0.43580059     0.06100
C1054       C  0.71892391  0.10880451  0.43461329    -0.13600
Br1055     Br  0.67032639  0.14409840  0.46922757    -0.05700
Br1056     Br  0.60499985  0.48507454  0.44060432    -0.00100
Br1057     Br  0.77499926  0.15866983  0.55837479     0.00400
Br1058     Br  0.69624417  0.08875049  0.38404131    -0.04000
Br1059     Br  0.59508889  0.09799280  0.44859448     0.00500
Br1060     Br  0.68025587  0.03369273  0.47383491    -0.03300
Br1061     Br  0.69796482  0.11488225  0.55593681    -0.04200
Br1062     Br  0.77253356  0.13020741  0.38681998    -0.00200
C1063       C  0.85355397  0.11617091  0.96599548     0.01200
C1064       C  0.86534926  0.10935629  0.93088970     0.04000
C1065       C  0.87928239  0.09134761  0.93191381    -0.12000
C1066       C  0.88036619  0.07886062  0.96756629     0.23300
C1067       C  0.86776549  0.08480551  0.00244037    -0.12600
C1068       C  0.85460816  0.10375071  0.00176766     0.04800
C1069       C  0.89412709  0.05881081  0.96714360     0.27200
C1070       C  0.87657116  0.02679037  0.95183232    -0.13300
C1071       C  0.89094824  0.00940097  0.94234274     0.05300
C1072       C  0.92348358  0.02461443  0.94667544    -0.09200
C1073       C  0.94030410  0.05562362  0.96681637     0.06900
C1074       C  0.92561989  0.07266192  0.97675849    -0.13600
Br1075     Br  0.86872370  0.06704639  0.05084511    -0.05700
Br1076     Br  0.86150585  0.12378215  0.88080563    -0.00100
Br1077     Br  0.86517922  0.96544525  0.92148267     0.00400
Br1078     Br  0.94889689  0.11586543  0.00094656    -0.04000
Br1079     Br  0.83862812  0.11325890  0.04979998     0.00500
Br1080     Br  0.89728708  0.08404148  0.88438276    -0.03300
Br1081     Br  0.83298820  0.00774596  0.94063997    -0.04200
Br1082     Br  0.98352480  0.07519924  0.98103058    -0.00200
C1083       C  0.95185201  0.37991303  0.89456330     0.01200
C1084       C  0.91987991  0.36144749  0.90008835     0.04000
C1085       C  0.90634181  0.32959848  0.90740015    -0.12000
C1086       C  0.92433253  0.31566383  0.90845630     0.23300
C1087       C  0.95608246  0.33374492  0.90246025    -0.12600
C1088       C  0.96997734  0.36603636  0.89639773     0.04800
C1089       C  0.90944371  0.28231222  0.91776118     0.27200
C1090       C  0.90936652  0.27573294  0.95779987    -0.13300
C1091       C  0.89017602  0.24469364  0.96821043     0.05300
C1092       C  0.87064603  0.22027797  0.93868413    -0.09200
C1093       C  0.87218531  0.22651906  0.89820539     0.06100
C1094       C  0.89169670  0.25748391  0.88775310    -0.13600
Br1095     Br  0.98023872  0.31399396  0.90209308    -0.05700
Br1096     Br  0.89430788  0.37978930  0.90030055    -0.00100
Br1097     Br  0.88976158  0.23588651  0.02318304     0.00400
Br1098     Br  0.89349619  0.26635114  0.83258692    -0.04000
Br1099     Br  0.01364747  0.39085964  0.88994468     0.00500
Br1100     Br  0.86294464  0.30493697  0.91692160    -0.03300
Br1101     Br  0.93448433  0.30967481  0.99860149    -0.04200
Br1102     Br  0.84770342  0.19263058  0.85702300    -0.00200
C1103       C  0.60055878  0.03581078  0.91026632     0.01200
C1104       C  0.61943800  0.06110662  0.88665119     0.04000
C1105       C  0.65064825  0.08248975  0.89789769    -0.12000
C1106       C  0.66481380  0.07653900  0.92880628     0.23300
C1107       C  0.64688756  0.05108004  0.95157485    -0.12600
C1108       C  0.61477919  0.03192939  0.94399267     0.04800
C1109       C  0.69894786  0.09520375  0.93470834     0.27200
C1110       C  0.71694944  0.08944877  0.90704484    -0.13300
C1111       C  0.74912040  0.10634264  0.91261712     0.05300
C1112       C  0.76352632  0.12808284  0.94684731    -0.09200
C1113       C  0.74566038  0.13429725  0.97420806     0.06100
C1114       C  0.71346538  0.11829132  0.96775648    -0.13600
Br1115     Br  0.66684911  0.04176139  0.99233815    -0.05700
Br1116     Br  0.60526654  0.06591528  0.83599264    -0.00100
Br1117     Br  0.77360397  0.10022286  0.87268603     0.00400
Br1118     Br  0.68914656  0.12788338  0.00402410    -0.04000
Br1119     Br  0.59149092  0.00118348  0.98134343     0.00500
Br1120     Br  0.67468787  0.12001597  0.87035946    -0.03300
Br1121     Br  0.69745271  0.05773075  0.86185656    -0.04200
Br1122     Br  0.76519930  0.16384369  0.02119372    -0.00200
C1123       C  0.79464404  0.63794644  0.95363101     0.03000
C1124       C  0.80978265  0.62211794  0.96259682    -0.13100
C1125       C  0.84185793  0.63753551  0.96244740     0.00500
C1126       C  0.85913530  0.66970970  0.95656210    -0.11700
C1127       C  0.84444667  0.68614235  0.94898992     0.03000
C1128       C  0.81220304  0.67011813  0.94680887    -0.11100
H1129       H  0.79650904  0.59715585  0.96698905     0.08600
H1130       H  0.88396096  0.68161826  0.95620770     0.06100
H1131       H  0.80087165  0.68250407  0.93914403     0.06000
C1132       C  0.80449417  0.65181398  0.45369151     0.03000
C1133       C  0.81847805  0.63388696  0.45309967    -0.13100
C1134       C  0.85004733  0.64822493  0.44844831     0.00500
C1135       C  0.86752234  0.68048998  0.44303023    -0.11700
C1136       C  0.85402840  0.69909396  0.44504367     0.03000
C1137       C  0.82244737  0.68460150  0.45166627    -0.11100
H1138       H  0.80461372  0.60855839  0.45507368     0.08600
H1139       H  0.89166861  0.69103404  0.43708215     0.06100
H1140       H  0.81153964  0.69847548  0.45338740     0.06000
C1141       C  0.68256715  0.84191701  0.77959590     0.03000
C1142       C  0.66903289  0.80947974  0.78312268    -0.13100
C1143       C  0.63712139  0.78884645  0.77757175     0.00500
C1144       C  0.61870109  0.80143436  0.76948249    -0.11700
C1145       C  0.63204004  0.83424253  0.76856363     0.03000
C1146       C  0.66398207  0.85430962  0.77288491    -0.11100
H1147       H  0.68354548  0.80025920  0.79006459     0.08600
H1148       H  0.59406982  0.78602850  0.76548440     0.06100
H1149       H  0.67431787  0.87962590  0.77202984     0.06000
C1150       C  0.71060139  0.85565738  0.26080124     0.03000
C1151       C  0.69656184  0.82315020  0.26531300    -0.13100
C1152       C  0.66523574  0.80510674  0.27339722     0.00500
C1153       C  0.64785274  0.81983938  0.27655474    -0.11700
C1154       C  0.66154962  0.85228622  0.27181271     0.03000
C1155       C  0.69281610  0.86984621  0.26322436    -0.11100
H1156       H  0.71038756  0.81231428  0.26470293     0.08600
H1157       H  0.62401353  0.80636162  0.28432484     0.06100
H1158       H  0.70378324  0.89508124  0.26103340     0.06000
O1159       O  0.54258111  0.98871562  0.79992966    -0.80300
O1160       O  0.92118174  0.94452595  0.84030030    -0.80300
O1161       O  0.99082972  0.93797550  0.91620355    -0.80300
O1162       O  0.97838250  0.51394304  0.78407891    -0.80200
O1163       O  0.95404534  0.92266094  0.87215855    -0.80300
O1164       O  0.48494899  0.47336655  0.77804233    -0.80300
O1165       O  0.92682262  0.99114092  0.84090757    -0.80300
O1166       O  0.51902044  0.95532860  0.84553015    -0.80300
C1167       C  0.53553146  0.96314752  0.81422674     1.09400
C1168       C  0.91094096  0.96152674  0.83104266     1.09300
C1169       C  0.96675066  0.91563568  0.89763646     1.09500
C1170       C  0.97493474  0.98960330  0.77196704     1.09300
O1171       O  0.53360420  0.53603011  0.80415654    -0.80300
O1172       O  0.96131542  0.96137985  0.94893925    -0.80300
O1173       O  0.54979129  0.48264625  0.90431220    -0.80300
O1174       O  0.96751035  0.52933121  0.90052652    -0.80200
O1175       O  0.92792854  0.48161174  0.90502546    -0.80300
O1176       O  0.55259864  0.51831064  0.86707409    -0.80300
O1177       O  0.51826826  0.55422664  0.85450429    -0.80200
O1178       O  0.50884767  0.00080567  0.94674475    -0.80300
Co1179     Co  0.51594796  0.49309028  0.82382536     1.51500
Co1180     Co  0.94304228  0.95372268  0.89228171     1.51700
Co1181     Co  0.51353228  0.98102536  0.89507990     1.51600
Co1182     Co  0.97444893  0.52093462  0.84409349     1.51500
O1183       O  0.98164889  0.98786160  0.87009575    -1.42200
C1184       C  0.53573955  0.55941882  0.82565246     1.09400
C1185       C  0.98587400  0.98396584  0.96724232     1.09500
C1186       C  0.56571314  0.50966854  0.89168608     1.09400
C1187       C  0.94168467  0.51131585  0.91463252     1.09400
O1188       O  0.56822224  0.00527226  0.32601739    -0.80300
O1189       O  0.94177017  0.96411868  0.32874222    -0.80300
O1190       O  0.99613539  0.95260582  0.42546782    -0.80300
O1191       O  0.00738338  0.53259523  0.28558693    -0.80200
O1192       O  0.96481181  0.93739443  0.37352039    -0.80300
O1193       O  0.51216620  0.49115400  0.28601396    -0.80300
O1194       O  0.95132915  0.01232517  0.32630263    -0.80300
O1195       O  0.53705853  0.97122426  0.36626467    -0.80300
C1196       C  0.55874462  0.97941508  0.34087083     1.09400
C1197       C  0.93544952  0.98292308  0.31445979     1.09300
C1198       C  0.97539542  0.93047047  0.40195800     1.09500
C1199       C  0.00655446  0.00925606  0.27561006     1.09300
O1200       O  0.55896342  0.55395861  0.31869502    -0.80300
O1201       O  0.96373831  0.97544321  0.44583514    -0.80300
O1202       O  0.55660061  0.50172094  0.43556235    -0.80300
O1203       O  0.98144412  0.54530529  0.39529688    -0.80200
O1204       O  0.94003112  0.49817229  0.39025576    -0.80300
O1205       O  0.56828496  0.53365836  0.38726214    -0.80300
O1206       O  0.53764024  0.56934846  0.36358600    -0.80200
O1207       O  0.51123780  0.01544561  0.45393220    -0.80300
Co1208     Co  0.53706854  0.50966270  0.33748920     1.51500
Co1209     Co  0.95497429  0.97059107  0.38555746     1.51700
Co1210     Co  0.52378157  0.99621895  0.40870244     1.51600
Co1211     Co  0.99550543  0.53820760  0.34279408     1.51500
O1212       O  0.99790200  0.00399984  0.37204375    -1.42200
C1213       C  0.55763974  0.57648684  0.33786705     1.09400
C1214       C  0.98548489  0.99777636  0.46879131     1.09500
C1215       C  0.57610842  0.52593240  0.41914849     1.09400
C1216       C  0.95396369  0.52706037  0.40404832     1.09400
C1217       C  0.98122403  0.00032681  0.51372352     0.01200
C1218       C  0.50521099  0.52473972  0.53232827     0.04000
C1219       C  0.50156249  0.52325889  0.57419109    -0.12000
C1220       C  0.97279092  0.99495047  0.59809568     0.23300
C1221       C  0.94734439  0.97967173  0.57055300    -0.12600
C1222       C  0.95125979  0.98375922  0.52919424     0.04800
C1223       C  0.96908235  0.98981043  0.64193358     0.27200
C1224       C  0.48510089  0.47903660  0.64795620    -0.13300
C1225       C  0.48624962  0.47645797  0.68955613     0.05300
C1226       C  0.96886349  0.98552925  0.72677868    -0.09200
C1227       C  0.95570286  0.00124321  0.70925427     0.06100
C1228       C  0.95733027  0.00471161  0.66767229    -0.13600
Br1229     Br  0.90700822  0.95176933  0.58948934    -0.05700
Br1230     Br  0.54446578  0.55703599  0.51492960    -0.00100
Br1231     Br  0.50863984  0.45773497  0.70711802     0.00400
Br1232     Br  0.94475001  0.03129516  0.64604789    -0.04000
Br1233     Br  0.91469956  0.96762278  0.49508676     0.00500
Br1234     Br  0.53512895  0.55232338  0.61167813    -0.03300
Br1235     Br  0.50246544  0.46098421  0.61071608    -0.04200
Br1236     Br  0.93369900  0.01698132  0.74089947    -0.00200
C1237       C  0.98814912  0.98850507  0.01301913     0.01200
C1238       C  0.51148023  0.51486783  0.02458342     0.04000
C1239       C  0.51403944  0.51818176  0.06713012    -0.12000
C1240       C  0.99443169  0.99384771  0.09901368     0.23300
C1241       C  0.96755966  0.96908357  0.07862396    -0.12600
C1242       C  0.96421293  0.96622549  0.03628436     0.04800
C1243       C  0.99714397  0.99714895  0.14408226     0.27200
C1244       C  0.50693896  0.98008541  0.16445791    -0.13300
C1245       C  0.50934279  0.98312465  0.20695880     0.05300
C1246       C  0.00215519  0.00388868  0.23013062    -0.09200
C1247       C  0.99138619  0.02035462  0.20886302     0.06100
C1248       C  0.98889186  0.01677143  0.16646951    -0.13600
Br1249     Br  0.93495565  0.93905993  0.10971351    -0.05700
Br1250     Br  0.53961395  0.55102923  0.99703937    -0.00100
Br1251     Br  0.52297390  0.95833555  0.23150139     0.00400
Br1252     Br  0.97351852  0.03850463  0.13817538    -0.04000
Br1253     Br  0.92568765  0.93126319  0.01252276     0.00500
Br1254     Br  0.54558744  0.55739932  0.09562235    -0.03300
Br1255     Br  0.51709629  0.95226387  0.13328954    -0.04200
Br1256     Br  0.97881251  0.04777669  0.23588516    -0.00200
C1257       C  0.65141672  0.77161249  0.28250054     0.01200
C1258       C  0.64715337  0.76422944  0.32264593     0.04000
C1259       C  0.63362629  0.73252090  0.33147122    -0.12000
C1260       C  0.62420733  0.70786144  0.30025460     0.23300
C1261       C  0.62863965  0.71525074  0.26012599    -0.12600
C1262       C  0.64240257  0.74701417  0.25130039     0.04800
C1263       C  0.60758612  0.67405038  0.30944586     0.27200
C1264       C  0.62346806  0.65811505  0.31441576    -0.13300
C1265       C  0.60735722  0.62601790  0.32271042     0.05300
C1266       C  0.57523267  0.60981008  0.32699851    -0.09200
C1267       C  0.55942154  0.62597773  0.32171295     0.06100
C1268       C  0.57553625  0.65777732  0.31295149    -0.13600
Br1269     Br  0.61478542  0.68154933  0.21725968    -0.05700
Br1270     Br  0.66005247  0.79771046  0.36566158    -0.00100
Br1271     Br  0.62956149  0.60477970  0.32943992     0.00400
Br1272     Br  0.55366219  0.67935314  0.30548145    -0.04000
Br1273     Br  0.64820286  0.75684647  0.19638739     0.00500
Br1274     Br  0.62725747  0.72261021  0.38635974    -0.03300
Br1275     Br  0.66745436  0.68068625  0.31048102    -0.04200
Br1276     Br  0.01515638  0.60454188  0.32420698    -0.00200
C1277       C  0.74464497  0.87592469  0.26044864     0.01200
C1278       C  0.75958261  0.88863528  0.22519283     0.04000
C1279       C  0.79193620  0.90849943  0.22597854    -0.12000
C1280       C  0.80943291  0.91549362  0.26194475     0.23300
C1281       C  0.79440644  0.90269738  0.29702158    -0.12600
C1282       C  0.76222887  0.88336676  0.29641787     0.04800
C1283       C  0.84366848  0.93537052  0.26356991     0.27200
C1284       C  0.86106323  0.92077981  0.25850030    -0.13300
C1285       C  0.89258371  0.93783422  0.26997907     0.05300
C1286       C  0.90671630  0.96942487  0.28831882    -0.09200
C1287       C  0.89028153  0.98541326  0.28690375     0.06100
C1288       C  0.85871072  0.96815235  0.27518391    -0.13600
Br1289     Br  0.81804247  0.91114953  0.34606978    -0.05700
Br1290     Br  0.73572760  0.87824996  0.17582356    -0.00100
Br1291     Br  0.91608162  0.91755832  0.25962319     0.00400
Br1292     Br  0.83526345  0.98876095  0.27757760    -0.04000
Br1293     Br  0.74218366  0.86774354  0.34547048     0.00500
Br1294     Br  0.81247458  0.92590775  0.17798504    -0.03300
Br1295     Br  0.84092808  0.87660564  0.23840026    -0.04200
Br1296     Br  0.90797522  0.52695860  0.30235789    -0.00200
C1297       C  0.57172295  0.95854558  0.32819973     0.01200
C1298       C  0.59362269  0.96667207  0.29750908     0.04000
C1299       C  0.60639600  0.94772262  0.28689542    -0.12000
C1300       C  0.59716765  0.91997140  0.30527934     0.23300
C1301       C  0.57507250  0.91109999  0.33458741    -0.12600
C1302       C  0.56337303  0.93067986  0.34727343     0.04800
C1303       C  0.61295410  0.90180703  0.29667291     0.27200
C1304       C  0.60407493  0.87937295  0.26277402    -0.13300
C1305       C  0.61987787  0.86314848  0.25445448     0.05300
C1306       C  0.64431420  0.86883402  0.28040777    -0.09200
C1307       C  0.65262918  0.89074267  0.31482740     0.06100
C1308       C  0.63732383  0.90742077  0.32258245    -0.13600
Br1309     Br  0.56139341  0.87186471  0.35790035    -0.05700
Br1310     Br  0.60825870  0.00415827  0.26955272    -0.00100
Br1311     Br  0.60873159  0.83391165  0.20682397     0.00400
Br1312     Br  0.64994468  0.93838955  0.36871360    -0.04000
Br1313     Br  0.53865275  0.91955504  0.39381671     0.00500
Br1314     Br  0.63763356  0.96008280  0.24758391    -0.03300
Br1315     Br  0.57025354  0.87102762  0.22785020    -0.04200
Br1316     Br  0.68437822  0.89722832  0.35241210    -0.00200
C1317       C  0.55615698  0.59228715  0.81525183     0.01200
C1318       C  0.57659541  0.61631757  0.84463768     0.04000
C1319       C  0.59332549  0.64809402  0.83585100    -0.12000
C1320       C  0.58770168  0.65637687  0.79907597     0.23300
C1321       C  0.56785128  0.63243050  0.76942830    -0.12600
C1322       C  0.55322708  0.60044093  0.77683340     0.04800
C1323       C  0.60031743  0.69020349  0.79304250     0.27200
C1324       C  0.58791303  0.70683944  0.81359911    -0.13300
C1325       C  0.60032228  0.73916248  0.80944741     0.05300
C1326       C  0.62330451  0.75442077  0.78161603    -0.09200
C1327       C  0.63419514  0.73694450  0.75898935     0.06100
C1328       C  0.62383880  0.70548863  0.76619331    -0.13600
Br1329     Br  0.55891081  0.64357264  0.71960266    -0.05700
Br1330     Br  0.58162372  0.60596402  0.89711475    -0.00100
Br1331     Br  0.58688857  0.76237923  0.84435698     0.00400
Br1332     Br  0.64219648  0.68341852  0.73979788    -0.04000
Br1333     Br  0.52798423  0.56849640  0.73437282     0.00500
Br1334     Br  0.62351551  0.68058224  0.87441825    -0.03300
Br1335     Br  0.55342419  0.68504276  0.84717175    -0.04200
Br1336     Br  0.66196215  0.75517654  0.71635066    -0.00200
C1337       C  0.71627524  0.86283169  0.78364313     0.01200
C1338       C  0.73134541  0.87099148  0.82170482     0.04000
C1339       C  0.76359646  0.88833701  0.82517756    -0.12000
C1340       C  0.78083241  0.89777752  0.79062221     0.23300
C1341       C  0.76577519  0.89075801  0.75272309    -0.12600
C1342       C  0.73347841  0.87332396  0.74923287     0.04800
C1343       C  0.81480759  0.91472097  0.79449564     0.27200
C1344       C  0.83191862  0.94780874  0.80222435    -0.13300
C1345       C  0.86365811  0.96368804  0.81197511     0.05300
C1346       C  0.87883679  0.94626361  0.81307195    -0.09200
C1347       C  0.86159683  0.91306965  0.80074900     0.06100
C1348       C  0.82966608  0.89747468  0.79272841    -0.13600
Br1349     Br  0.78953532  0.90466670  0.70574812    -0.05700
Br1350     Br  0.70768178  0.85879253  0.86905946    -0.00100
Br1351     Br  0.88439186  0.00908506  0.82536495     0.00400
Br1352     Br  0.80555815  0.85194438  0.78072740    -0.04000
Br1353     Br  0.71275413  0.86313723  0.69727373     0.00500
Br1354     Br  0.78430637  0.89883286  0.87719587    -0.03300
Br1355     Br  0.81102290  0.97103944  0.80088604    -0.04200
Br1356     Br  0.88047287  0.88771491  0.79363789    -0.00200
C1357       C  0.54580538  0.94208772  0.79529905     0.01200
C1358       C  0.57691328  0.95482144  0.78565562     0.04000
C1359       C  0.58779423  0.93457131  0.77371957    -0.12000
C1360       C  0.56776211  0.90153289  0.77110478     0.23300
C1361       C  0.53627299  0.88874008  0.77717809    -0.12600
C1362       C  0.52526825  0.90889729  0.78944019     0.04800
C1363       C  0.58087271  0.88084722  0.76895593     0.27200
C1364       C  0.58936770  0.87203436  0.73216852    -0.13300
C1365       C  0.60547623  0.85593170  0.73171086     0.05300
C1366       C  0.61264654  0.84828939  0.76793089    -0.09200
C1367       C  0.60347641  0.85644543  0.80451690     0.06100
C1368       C  0.58763836  0.87265826  0.80503036    -0.13600
Br1369     Br  0.50870005  0.84340865  0.77049334    -0.05700
Br1370     Br  0.60630598  0.49733943  0.78127930    -0.00100
Br1371     Br  0.61902376  0.84556592  0.68196143     0.00400
Br1372     Br  0.57678032  0.88536370  0.85559911    -0.04000
Br1373     Br  0.98195291  0.89059486  0.79781945     0.00500
Br1374     Br  0.63084550  0.95197756  0.76387681    -0.03300
Br1375     Br  0.57992287  0.88313081  0.68288351    -0.04200
Br1376     Br  0.61441934  0.84728115  0.85438282    -0.00200
C1377       C  0.93694963  0.54045905  0.42577213     0.01200
C1378       C  0.90432174  0.52449363  0.42186424     0.04000
C1379       C  0.88942468  0.54127468  0.43123402    -0.12000
C1380       C  0.90667783  0.57350392  0.44527543     0.23300
C1381       C  0.93823385  0.58815440  0.45476921    -0.12600
C1382       C  0.95330572  0.57144960  0.44606384     0.04800
C1383       C  0.89211583  0.59260167  0.44653771     0.27200
C1384       C  0.89127852  0.60623750  0.41185744    -0.13300
C1385       C  0.87716225  0.62414805  0.41229467     0.05300
C1386       C  0.86452738  0.62906353  0.44778816    -0.09200
C1387       C  0.86527644  0.61524042  0.48248671     0.06100
C1388       C  0.87875012  0.59665722  0.48164241    -0.13600
Br1389     Br  0.96095153  0.63181904  0.47741736    -0.05700
Br1390     Br  0.87886039  0.48012506  0.40302049    -0.00100
Br1391     Br  0.87386482  0.64056773  0.36367485     0.00400
Br1392     Br  0.87866828  0.57632625  0.52813178    -0.04000
Br1393     Br  0.99603114  0.59125293  0.46335554     0.00500
Br1394     Br  0.84543245  0.52092336  0.42238170    -0.03300
Br1395     Br  0.90920714  0.59993345  0.36358030    -0.04200
Br1396     Br  0.84862980  0.62235934  0.53152274    -0.00200
C1397       C  0.87279279  0.73324579  0.43854819     0.01200
C1398       C  0.86277793  0.74592645  0.41013911     0.04000
C1399       C  0.88002916  0.77847032  0.40549911    -0.12000
C1400       C  0.90925714  0.79767661  0.42490806     0.23300
C1401       C  0.92036250  0.78467935  0.45087657    -0.12600
C1402       C  0.90138535  0.75325835  0.45984261     0.04800
C1403       C  0.92779826  0.83185883  0.41944980     0.27200
C1404       C  0.94136378  0.84188398  0.38265611    -0.13300
C1405       C  0.95704996  0.87422805  0.37683226     0.05300
C1406       C  0.96153560  0.89690256  0.40898392    -0.09200
C1407       C  0.94964611  0.88684564  0.44664525     0.06100
C1408       C  0.93160748  0.85437819  0.45121233    -0.13600
Br1409     Br  0.96177717  0.81004956  0.47400365    -0.05700
Br1410     Br  0.82687673  0.71901606  0.37495131    -0.00100
Br1411     Br  0.97254144  0.88723257  0.32472141     0.00400
Br1412     Br  0.91065115  0.84063194  0.50040204    -0.04000
Br1413     Br  0.91405755  0.73905253  0.50361158     0.00500
Br1414     Br  0.86324700  0.79695933  0.37336587    -0.03300
Br1415     Br  0.93840170  0.81124970  0.34025533    -0.04200
Br1416     Br  0.95636977  0.91692017  0.49194370    -0.00200
C1417       C  0.60819021  0.54527409  0.43522619     0.01200
C1418       C  0.62479896  0.53059526  0.44362237     0.04000
C1419       C  0.65671990  0.54913571  0.45158337    -0.12000
C1420       C  0.67231612  0.58201290  0.44893572     0.23300
C1421       C  0.65573701  0.59681077  0.44209829    -0.12600
C1422       C  0.62360304  0.57860372  0.43689084     0.04800
C1423       C  0.70625000  0.60058961  0.45030861     0.27200
C1424       C  0.72287375  0.61983760  0.48534875    -0.13300
C1425       C  0.75515631  0.63753813  0.48620727     0.05300
C1426       C  0.77073044  0.63540290  0.45231238    -0.09200
C1427       C  0.75405422  0.61631988  0.41713892     0.06100
C1428       C  0.72184692  0.59903038  0.41609582    -0.13600
Br1429     Br  0.67726806  0.64174700  0.43720130    -0.05700
Br1430     Br  0.60682359  0.98714638  0.44546085    -0.00100
Br1431     Br  0.77807049  0.66404140  0.53399728     0.00400
Br1432     Br  0.69899080  0.57309408  0.36778556    -0.04000
Br1433     Br  0.60076699  0.59955661  0.43319461     0.00500
Br1434     Br  0.67957587  0.52946781  0.46396778    -0.03300
Br1435     Br  0.70131334  0.62124980  0.53230513    -0.04200
Br1436     Br  0.77533766  0.61424829  0.37002470    -0.00200
C1437       C  0.85686749  0.61881548  0.96207392     0.01200
C1438       C  0.86559121  0.61039936  0.92525682     0.04000
C1439       C  0.87919384  0.59195004  0.92406117    -0.12000
C1440       C  0.88334801  0.58098653  0.95944866     0.23300
C1441       C  0.87455928  0.58932359  0.99631120    -0.12600
C1442       C  0.86166373  0.60858063  0.99767596     0.04800
C1443       C  0.89722446  0.56094732  0.95727563     0.27200
C1444       C  0.87911981  0.52844625  0.94427958    -0.13300
C1445       C  0.89309796  0.51057760  0.93500661     0.05300
C1446       C  0.92571378  0.52572773  0.93732638    -0.09200
C1447       C  0.94309369  0.55722834  0.95581495     0.06900
C1448       C  0.92896189  0.57489171  0.96495458    -0.13600
Br1449     Br  0.88013195  0.57422356  0.04466243    -0.05700
Br1450     Br  0.85826029  0.62354047  0.87610540    -0.00100
Br1451     Br  0.86659991  0.46582328  0.91836625     0.00400
Br1452     Br  0.95335820  0.61897001  0.98553844    -0.04000
Br1453     Br  0.85118161  0.62162461  0.04817184     0.00500
Br1454     Br  0.89250505  0.58202661  0.87382357    -0.03300
Br1455     Br  0.83517126  0.50910513  0.93677294    -0.04200
Br1456     Br  0.98622501  0.57644466  0.96988955    -0.00200
C1457       C  0.95114538  0.88251837  0.90790584     0.01200
C1458       C  0.91900874  0.86603290  0.91300715     0.04000
C1459       C  0.90321463  0.83389844  0.91959816    -0.12000
C1460       C  0.91919899  0.81789976  0.92134707     0.23300
C1461       C  0.95122630  0.83421569  0.91693034    -0.12600
C1462       C  0.96726853  0.86659313  0.91053751     0.04800
C1463       C  0.90184422  0.78391700  0.92825615     0.27200
C1464       C  0.89628021  0.77526948  0.96772960    -0.13300
C1465       C  0.87682175  0.74331191  0.97444226     0.05300
C1466       C  0.86323465  0.71986064  0.94171965    -0.09200
C1467       C  0.86896988  0.72845707  0.90221379     0.06100
C1468       C  0.88816710  0.76048157  0.89548918    -0.13600
Br1469     Br  0.97277493  0.81183449  0.91876105    -0.05700
Br1470     Br  0.89604084  0.88720879  0.91251693    -0.00100
Br1471     Br  0.86792050  0.73160489  0.02843363     0.00400
Br1472     Br  0.89533115  0.77253183  0.84150336    -0.04000
Br1473     Br  0.01093974  0.88854963  0.90359334     0.00500
Br1474     Br  0.85930944  0.81137775  0.92590102    -0.03300
Br1475     Br  0.91491061  0.80745384  0.01247885    -0.04200
Br1476     Br  0.85044193  0.69633157  0.85741284    -0.00200
C1477       C  0.59868968  0.53133618  0.90568804     0.01200
C1478       C  0.61961630  0.55570707  0.88234874     0.04000
C1479       C  0.65089273  0.57466964  0.89456588    -0.12000
C1480       C  0.66221297  0.56841444  0.92835536     0.23300
C1481       C  0.64186167  0.54480498  0.95205654    -0.12600
C1482       C  0.61011430  0.52713305  0.94180989     0.04800
C1483       C  0.69590382  0.58534533  0.93692843     0.27200
C1484       C  0.71358576  0.57579421  0.91421279    -0.13300
C1485       C  0.74579573  0.59351469  0.91884908     0.05300
C1486       C  0.76057015  0.61995690  0.94806819    -0.09200
C1487       C  0.74265973  0.62886952  0.97175978     0.06100
C1488       C  0.71044108  0.61194800  0.96559546    -0.13600
Br1489     Br  0.65795801  0.53611932  0.99796986    -0.05700
Br1490     Br  0.60747866  0.56299306  0.83186660    -0.00100
Br1491     Br  0.76937945  0.58251013  0.88282973     0.00400
Br1492     Br  0.68605694  0.62537912  0.99574963    -0.04000
Br1493     Br  0.58308331  0.49845200  0.97915203     0.00500
Br1494     Br  0.67899978  0.60907579  0.86432129    -0.03300
Br1495     Br  0.69340774  0.53842089  0.87621881    -0.04200
Br1496     Br  0.76194605  0.66363547  0.01344609    -0.00200
loop_ 
_geom_bond_atom_site_label_1 
_geom_bond_atom_site_label_2 
_geom_bond_distance 
_geom_bond_site_symmetry_2 
_ccdc_geom_bond_type 
C1            C2   1.405       .  A
C1            C6   1.406       .  A
C1          C364   1.484       .  S
C2            C3   1.401       .  A
C2            H7   1.084       .  S
C3            C4   1.400       .  A
C3          C315   1.477       .  S
C4            C5   1.399       .  A
C4            H8   1.084       .  S
C5            C6   1.407       .  A
C5          C344   1.480       .  S
C6            H9   1.084       .  S
C10          C11   1.398       .  A
C10          C15   1.402       .  A
C10         C304   1.474       .  S
C11          C12   1.398       .  A
C11          H16   1.084       .  S
C12          C13   1.404       .  A
C12         C264   1.481       .  S
C13          C14   1.407       .  A
C13          H17   1.083       .  S
C14          C15   1.408       .  A
C14         C275   1.493       .  S
C15          H18   1.084       .  S
C19          C20   1.400       .  A
C19          C24   1.402       .  A
C19         C215   1.482       .  S
C20          C21   1.401       .  A
C20          H25   1.086       .  S
C21          C22   1.406       .  A
C21         C204   1.484       .  S
C22          C23   1.402       .  A
C22          H26   1.081       .  S
C23          C24   1.402       .  A
C23         C244   1.475       .  S
C24          H27   1.084       .  S
C28          C29   1.402       .  A
C28          C33   1.402       .  A
C28         C155   1.477       .  S
C29          C30   1.401       .  A
C29          H34   1.084       .  S
C30          C31   1.405       .  A
C30         C135   1.479       .  S
C31          C32   1.406       .  A
C31          H35   1.084       .  S
C32          C33   1.404       .  A
C32         C184   1.484       .  S
C33          H36   1.084       .  S
O37          C45   1.264       .  A
O37        Co431   1.899       .  S
O38          C46   1.261       .  A
O38         Co58   1.963       .  S
O39          C47   1.262       .  A
O39        Co807   2.011       .  S
O40         C422   1.280   1_545  A
O40         Co60   2.043       .  S
O41          C47   1.253       .  A
O41         Co58   1.969       .  S
O42        C1170   1.268       .  A
O42         Co57   1.988   1_655  S
O43          C46   1.269       .  A
O43        Co434   2.013       .  S
O44          C45   1.295       .  A
O44         Co59   2.103       .  S
C45         C235   1.489       .  S
C46         C224   1.498       .  S
C47         C335   1.480       .  S
C48         C104   1.518       .  S
C48         O414   1.279       .  A
C48        O1164   1.271       .  A
O49          C62   1.265       .  A
O49         Co57   2.010   1_545  S
O50          C63   1.281       .  A
O50         Co58   2.045       .  S
O51          C64   1.268   1_565  A
O51        Co433   1.899       .  S
O52          C65   1.263       .  A
O52         Co60   1.965       .  S
O53          C65   1.271   1_565  A
O53        Co432   2.014       .  S
O54          C64   1.296       .  A
O54         Co57   2.113   1_545  S
O55          C62   1.255       .  A
O55        Co808   1.968   1_455  S
O56         C811   1.271   1_455  A
O56         Co59   1.984       .  S
Co57        O411   1.896       .  S
Co57       O1183   2.001   1_455  S
Co58        O427   2.015       .  S
Co58         O61   2.023       .  S
Co59        O787   2.011   1_455  S
Co59        O425   1.893       .  S
Co59        O809   2.023   1_455  S
Co60        O417   2.013   1_545  S
Co60        O803   1.967       .  S
Co60        O435   2.031   1_545  S
O61       Co1179   2.004       .  S
O61        Co807   2.023       .  S
O61        Co434   2.034       .  S
C62         C195   1.472       .  S
C63         C115   1.523   1_556  S
C63         O804   1.271       .  A
C64         C355   1.510       .  S
C65         C324   1.495       .  S
O66          C74   1.267       .  A
O66        Co460   1.887       .  S
O67          C75   1.264       .  A
O67         Co87   1.961       .  S
O68          C76   1.267       .  A
O68        Co836   2.016       .  S
O69         C451   1.277       .  A
O69         Co89   2.035       .  S
O70          C76   1.257       .  A
O70         Co87   1.966       .  S
O71        C1199   1.271   1_565  A
O71         Co86   1.988   1_565  S
O72          C75   1.271       .  A
O72        Co463   2.012       .  S
O73          C74   1.300       .  A
O73         Co88   2.126       .  S
C74         C175   1.518       .  S
C75         C164   1.491       .  S
C76         C284   1.488       .  S
C77         C124   1.525       .  S
C77         O443   1.279       .  A
C77        O1193   1.273       .  A
O78          C91   1.266       .  A
O78         Co86   2.024       .  S
O79          C92   1.278       .  A
O79         Co87   2.036       .  S
O80          C93   1.267       .  A
O80        Co462   1.889   1_545  S
O81          C94   1.261       .  A
O81         Co89   1.962       .  S
O82          C94   1.269   1_565  A
O82        Co461   2.011       .  S
O83          C93   1.298       .  A
O83         Co86   2.109       .  S
O84          C91   1.253       .  A
O84        Co837   1.967   1_455  S
O85         C840   1.270   1_455  A
O85         Co88   1.990       .  S
Co86        O440   1.890       .  S
Co86       O1212   2.007   1_455  S
Co87        O456   1.998       .  S
Co87         O90   2.025       .  S
Co88        O816   2.016   1_455  S
Co88        O454   1.884       .  S
Co88        O838   1.996   1_455  S
Co89        O446   2.023       .  S
Co89        O832   1.967       .  S
Co89        O464   2.022       .  S
O90       Co1208   1.998       .  S
O90        Co836   1.996       .  S
O90        Co463   2.018       .  S
C91         C144   1.486       .  S
C92          C95   1.523       .  S
C92         O833   1.270       .  A
C93         C295   1.480       .  S
C94         C255   1.499       .  S
C95         C100   1.429       .  A
C95        C1218   1.428       .  A
C96          C97   1.418       .  A
C96        C1217   1.429   1_455  A
C96        Br108   1.931       .  S
C97        C1220   1.409   1_445  A
C97        Br112   1.935       .  S
C98          C99   1.407       .  A
C98        C1219   1.409       .  A
C98         C101   1.506       .  S
C99         C100   1.416       .  A
C99        Br107   1.933       .  S
C100       Br111   1.935       .  S
C101        C106   1.409       .  A
C101       C1224   1.409       .  A
C102        C103   1.418       .  A
C102       C1223   1.409       .  A
C102       Br113   1.934       .  S
C103       C1226   1.428       .  A
C103       Br109   1.929       .  S
C104        C105   1.425       .  A
C104       C1225   1.426       .  A
C105        C106   1.416       .  A
C105       Br114   1.931       .  S
C106       Br110   1.931       .  S
C115        C120   1.429       .  A
C115       C1238   1.426       .  A
C116        C117   1.419       .  A
C116       C1237   1.430   1_445  A
C116       Br128   1.935       .  S
C117       C1240   1.408   1_445  A
C117       Br132   1.933       .  S
C118        C119   1.408       .  A
C118       C1239   1.411       .  A
C118        C121   1.512       .  S
C119        C120   1.418       .  A
C119       Br127   1.933       .  S
C120       Br131   1.934       .  S
C121        C126   1.408       .  A
C121        C870   1.410       .  A
C122        C123   1.420       .  A
C122        C869   1.410   1_455  A
C122       Br133   1.933       .  S
C123        C872   1.428       .  A
C123       Br129   1.934       .  S
C124        C125   1.430       .  A
C124        C871   1.428       .  A
C125        C126   1.419       .  A
C125       Br134   1.934       .  S
C126       Br130   1.933       .  S
C135        C136   1.409       .  A
C135        C140   1.409       .  A
C136        C137   1.407       .  A
C136       Br148   1.929       .  S
C137        C138   1.409       .  A
C137       Br152   1.930       .  S
C138        C139   1.410       .  A
C138        C141   1.486       .  S
C139        C140   1.408       .  A
C139       Br147   1.928       .  S
C140       Br151   1.929       .  S
C141        C142   1.410       .  A
C141        C146   1.405       .  A
C142        C143   1.412       .  A
C142       Br153   1.928       .  S
C143        C144   1.414       .  A
C143       Br149   1.930       .  S
C144        C145   1.420       .  A
C145        C146   1.405       .  A
C145       Br902   1.937       .  S
C146       Br150   1.934       .  S
Br154       C893   1.937       .  S
C155        C156   1.410       .  A
C155        C160   1.408       .  A
C156        C157   1.410       .  A
C156       Br168   1.927       .  S
C157        C158   1.408       .  A
C157       Br172   1.927       .  S
C158        C159   1.409       .  A
C158        C161   1.481       .  S
C159        C160   1.402       .  A
C159       Br167   1.928       .  S
C160       Br171   1.932       .  S
C161        C162   1.405       .  A
C161        C166   1.406       .  A
C162        C163   1.406       .  A
C162       Br173   1.929       .  S
C163        C164   1.417       .  A
C163       Br169   1.934       .  S
C164        C165   1.422       .  A
C165        C166   1.407       .  A
C165       Br548   1.935       .  S
C166       Br170   1.932       .  S
Br174       C539   1.934   1_545  S
C175        C176   1.432       .  A
C175        C180   1.432       .  A
C176        C177   1.413       .  A
C176       Br188   1.937       .  S
C177        C178   1.403       .  A
C177       Br192   1.934       .  S
C178        C179   1.400       .  A
C178        C181   1.489       .  S
C179        C180   1.410       .  A
C179       Br187   1.937       .  S
C180       Br191   1.927       .  S
C181        C182   1.409       .  A
C181        C186   1.410       .  A
C182        C183   1.409       .  A
C182       Br193   1.928       .  S
C183        C184   1.411       .  A
C183       Br189   1.930       .  S
C184        C185   1.412       .  A
C185        C186   1.408       .  A
C185       Br194   1.931       .  S
C186       Br190   1.931       .  S
C195        C196   1.413       .  A
C195        C200   1.412       .  A
C196        C197   1.406       .  A
C196       Br208   1.932       .  S
C197        C198   1.408       .  A
C197       Br212   1.929       .  S
C198        C199   1.406       .  A
C198        C201   1.477       .  S
C199        C200   1.401       .  A
C199       Br207   1.934       .  S
C200       Br211   1.924       .  S
C201        C202   1.407       .  A
C201        C206   1.406       .  A
C202        C203   1.404       .  A
C202       Br213   1.934       .  S
C203        C204   1.416       .  A
C203       Br209   1.931       .  S
C204        C205   1.415       .  A
C205        C206   1.405       .  A
C205       Br214   1.932       .  S
C206       Br210   1.931       .  S
C215        C216   1.413       .  A
C215        C220   1.413       .  A
C216        C217   1.406       .  A
C216       Br228   1.932       .  S
C217        C218   1.408       .  A
C217       Br232   1.931       .  S
C218        C219   1.407       .  A
C218        C221   1.482       .  S
C219        C220   1.406       .  A
C219       Br227   1.929       .  S
C220       Br231   1.931       .  S
C221        C222   1.404       .  A
C221        C226   1.405       .  A
C222        C223   1.407       .  A
C222       Br233   1.933       .  S
C223        C224   1.424       .  A
C223       Br229   1.931       .  S
C224        C225   1.420       .  A
C225        C226   1.408       .  A
C225       Br234   1.934       .  S
C226       Br230   1.931       .  S
C235        C236   1.417       .  A
C235        C240   1.415       .  A
C236        C237   1.406       .  A
C236       Br622   1.926       .  S
C237        C238   1.406       .  A
C237       Br252   1.934       .  S
C238        C239   1.407       .  A
C238        C241   1.483       .  S
C239        C240   1.409       .  A
C239       Br247   1.928       .  S
C240       Br999   1.930   1_455  S
C241        C242   1.410       .  A
C241        C246   1.409       .  A
C242        C243   1.410       .  A
C242       Br253   1.927       .  S
C243        C244   1.409       .  A
C243       Br249   1.928       .  S
C244        C245   1.407       .  A
C245        C246   1.402       .  A
C245       Br254   1.931       .  S
C246       Br250   1.929       .  S
Br248       C610   1.925       .  S
Br251       C988   1.930       .  S
C255        C256   1.427       .  A
C255        C260   1.422       .  A
C256        C257   1.407       .  A
C256       Br268   1.931   1_545  S
C257        C258   1.402       .  A
C257       Br272   1.935       .  S
C258        C259   1.404       .  A
C258        C261   1.481       .  S
C259        C260   1.408       .  A
C259       Br267   1.932       .  S
C260       Br271   1.935       .  S
C261        C262   1.408       .  A
C261        C266   1.407       .  A
C262        C263   1.405       .  A
C262       Br273   1.931       .  S
C263        C264   1.412       .  A
C263       Br269   1.932       .  S
C264        C265   1.414       .  A
C265        C266   1.407       .  A
C265       Br274   1.931       .  S
C266       Br270   1.930       .  S
C275        C276   1.418       .  A
C275        C280   1.417       .  A
C276        C277   1.406       .  A
C276       Br288   1.933       .  S
C277        C278   1.408       .  A
C277       Br292   1.933       .  S
C278        C279   1.410       .  A
C278        C281   1.488       .  S
C279        C280   1.408       .  A
C279       Br287   1.932       .  S
C280       Br291   1.932       .  S
C281        C282   1.410       .  A
C281        C286   1.408       .  A
C282        C283   1.409       .  A
C282       Br293   1.932       .  S
C283        C284   1.416       .  A
C283       Br289   1.934       .  S
C284        C285   1.417       .  A
C285        C286   1.406       .  A
C285       Br294   1.927       .  S
C286       Br290   1.935       .  S
C295        C296   1.415       .  A
C295        C300   1.413       .  A
C296        C297   1.406       .  A
C296       Br682   1.929   1_545  S
C297        C298   1.407       .  A
C297       Br312   1.933       .  S
C298        C299   1.407       .  A
C298        C301   1.480       .  S
C299        C300   1.406       .  A
C299       Br307   1.929       .  S
C300       Br311   1.930       .  S
C301        C302   1.409       .  A
C301        C306   1.409       .  A
C302        C303   1.409       .  A
C302       Br313   1.927       .  S
C303        C304   1.408       .  A
C303       Br309   1.927       .  S
C304        C305   1.409       .  A
C305        C306   1.402       .  A
C305       Br314   1.932       .  S
C306       Br310   1.933       .  S
Br308       C670   1.930       .  S
C315        C316   1.410       .  A
C315        C320   1.410   1_556  A
C316        C317   1.402       .  A
C316       Br328   1.933       .  S
C317        C318   1.409       .  A
C317       Br332   1.931       .  S
C318        C319   1.410   1_556  A
C318        C321   1.483       .  S
C319        C320   1.410       .  A
C319       Br327   1.927       .  S
C320       Br331   1.928       .  S
C321        C322   1.405       .  A
C321        C326   1.406       .  A
C322        C323   1.408       .  A
C322       Br333   1.934       .  S
C323        C324   1.423       .  A
C323       Br329   1.934   1_545  S
C324        C325   1.419       .  A
C325        C326   1.409       .  A
C325       Br334   1.933       .  S
C326       Br330   1.930   1_556  S
C335        C336   1.416       .  A
C335        C340   1.413       .  A
C336        C337   1.403       .  A
C336       Br348   1.936       .  S
C337        C338   1.407       .  A
C337       Br352   1.934       .  S
C338        C339   1.409       .  A
C338        C341   1.482       .  S
C339        C340   1.410       .  A
C339       Br347   1.928       .  S
C340       Br351   1.927       .  S
C341        C342   1.409       .  A
C341        C346   1.409       .  A
C342        C343   1.407       .  A
C342       Br353   1.930       .  S
C343        C344   1.410       .  A
C343       Br349   1.929   1_556  S
C344        C345   1.411       .  A
C345        C346   1.407       .  A
C345       Br354   1.930       .  S
C346       Br350   1.930       .  S
C355        C356   1.429       .  A
C355        C360   1.427       .  A
C356        C357   1.409       .  A
C356       Br368   1.932       .  S
C357        C358   1.403       .  A
C357       Br372   1.935       .  S
C358        C359   1.406       .  A
C358        C361   1.491       .  S
C359        C360   1.413       .  A
C359       Br367   1.933       .  S
C360       Br371   1.935       .  S
C361        C362   1.411       .  A
C361        C366   1.412       .  A
C362        C363   1.406       .  A
C362       Br373   1.932       .  S
C363        C364   1.410       .  A
C363       Br369   1.931       .  S
C364        C365   1.411       .  A
C365        C366   1.412       .  A
C365       Br374   1.928   1_556  S
C366       Br370   1.929   1_556  S
C375        C376   1.405       .  A
C375        C380   1.408       .  A
C375        C738   1.488       .  S
C376        C377   1.400       .  A
C376        H381   1.084       .  S
C377        C378   1.399       .  A
C377        C689   1.476       .  S
C378        C379   1.400       .  A
C378        H382   1.084       .  S
C379        C380   1.405       .  A
C379        C718   1.477       .  S
C380        H383   1.084       .  S
C384        C385   1.397       .  A
C384        C389   1.401       .  A
C384        C678   1.472       .  S
C385        C386   1.395       .  A
C385        H390   1.084       .  S
C386        C387   1.400       .  A
C386        C638   1.473       .  S
C387        C388   1.405       .  A
C387        H391   1.084       .  S
C388        C389   1.407       .  A
C388        C649   1.488       .  S
C389        H392   1.083       .  S
C393        C394   1.400       .  A
C393        C398   1.398       .  A
C393        C589   1.475       .  S
C394        C395   1.404       .  A
C394        H399   1.087       .  S
C395        C396   1.409       .  A
C395        C578   1.491       .  S
C396        C397   1.405       .  A
C396        H400   1.080       .  S
C397        C398   1.400       .  A
C397        C618   1.476       .  S
C398        H401   1.084       .  S
C402        C403   1.407       .  A
C402        C407   1.404       .  A
C402        C529   1.488       .  S
C403        C404   1.406       .  A
C403        H408   1.084       .  S
C404        C405   1.408       .  A
C404        C509   1.491       .  S
C405        C406   1.408       .  A
C405        H409   1.084       .  S
C406        C407   1.407       .  A
C406        C558   1.492       .  S
C407        H410   1.084       .  S
O411        C419   1.265       .  A
O412        C420   1.259       .  A
O412       Co432   1.961       .  S
O413        C421   1.265       .  A
O413      Co1181   2.023       .  S
O414       Co434   2.037       .  S
O415        C421   1.251       .  A
O415       Co432   1.960       .  S
O416        C796   1.271       .  A
O416       Co431   1.994   1_655  S
O417        C420   1.268       .  A
O418        C419   1.296       .  A
O418       Co433   2.107       .  S
C419        C609   1.486       .  S
C420        C598   1.504       .  S
C421        C709   1.481       .  S
C422        C478   1.523       .  S
C422        O790   1.268       .  A
O423        C436   1.264       .  A
O423       Co431   2.009       .  S
O424        C437   1.278       .  A
O424       Co432   2.037       .  S
O425        C438   1.266       .  A
O426        C439   1.265       .  A
O426       Co434   1.969       .  S
O427        C439   1.270       .  A
O428        C438   1.296       .  A
O428       Co431   2.110       .  S
O429        C436   1.260       .  A
O429      Co1182   1.980   1_455  S
O430       C1185   1.272   1_445  A
O430       Co433   1.987   1_545  S
Co431       O809   2.004   1_455  S
Co432       O435   2.010       .  S
Co433      O1161   2.023   1_455  S
Co433      O1183   2.024   1_455  S
Co434      O1177   1.980       .  S
O435       Co805   2.001       .  S
O435      Co1181   2.024       .  S
C436        C569   1.483       .  S
C437        C489   1.527   1_556  S
C437       O1178   1.272   1_565  A
C438        C729   1.500       .  S
C439        C698   1.498       .  S
O440        C448   1.263   1_545  A
O441        C449   1.263       .  A
O441       Co461   1.967       .  S
O442        C450   1.264       .  A
O442      Co1210   2.007       .  S
O443       Co463   2.044       .  S
O444        C450   1.255       .  A
O444       Co461   1.964       .  S
O445        C825   1.273       .  A
O445       Co460   1.993       .  S
O446        C449   1.272   1_545  A
O447        C448   1.301       .  A
O447       Co462   2.134       .  S
C448        C549   1.521       .  S
C449        C538   1.503       .  S
C450        C658   1.475       .  S
C451        C498   1.522       .  S
C451        O819   1.271   1_545  A
O452        C465   1.270       .  A
O452       Co460   2.041       .  S
O453        C466   1.279       .  A
O453       Co461   2.039       .  S
O454        C467   1.267       .  A
O455        C468   1.262       .  A
O455       Co463   1.966       .  S
O456        C468   1.266       .  A
O457        C467   1.299       .  A
O457       Co460   2.110       .  S
O458        C465   1.254       .  A
O458      Co1211   1.967   1_455  S
O459       C1214   1.270   1_445  A
O459       Co462   1.993   1_545  S
Co460       O838   1.998   1_455  S
Co461       O464   2.024   1_565  S
Co462      O1190   2.007   1_455  S
Co462      O1212   2.008   1_465  S
Co463      O1206   1.967       .  S
O464       Co834   2.007       .  S
O464      Co1210   2.008   1_545  S
C465        C518   1.495       .  S
C466        C469   1.523   1_565  S
C466       O1207   1.270   1_565  A
C467        C669   1.476       .  S
C468        C629   1.491       .  S
C469        C844   1.429       .  A
C469        C474   1.428   1_545  A
C470        C843   1.428   1_455  A
C470        C471   1.417       .  A
C470       Br482   1.933       .  S
C471        C846   1.409   1_455  A
C471       Br486   1.933       .  S
C472        C845   1.409   1_565  A
C472        C473   1.408       .  A
C472        C475   1.508       .  S
C473        C474   1.417       .  A
C473       Br481   1.931       .  S
C474       Br485   1.934       .  S
C475        C850   1.409       .  A
C475        C480   1.408   1_565  A
C476        C849   1.409       .  A
C476        C477   1.416       .  A
C476       Br487   1.935   1_655  S
C477        C852   1.426       .  A
C477       Br483   1.928   1_655  S
C478        C851   1.428       .  A
C478        C479   1.425   1_565  A
C479        C480   1.416       .  A
C479       Br488   1.931       .  S
C480       Br484   1.931       .  S
C489        C864   1.430   1_565  A
C489        C494   1.435       .  A
C490        C863   1.426   1_455  A
C490        C491   1.420       .  A
C490       Br502   1.933   1_554  S
C491        C866   1.411   1_455  A
C491       Br506   1.931       .  S
C492        C865   1.408   1_565  A
C492        C493   1.404       .  A
C492        C495   1.505       .  S
C493        C494   1.416       .  A
C493       Br501   1.936       .  S
C494       Br505   1.935       .  S
C495       C1244   1.408       .  A
C495        C500   1.405   1_565  A
C496       C1243   1.408   1_455  A
C496        C497   1.419       .  A
C496       Br507   1.932       .  S
C497       C1246   1.430   1_565  A
C497       Br503   1.935       .  S
C498       C1245   1.430   1_545  A
C498        C499   1.432       .  A
C499        C500   1.415       .  A
C499       Br508   1.937       .  S
C500       Br504   1.935       .  S
C509        C510   1.412       .  A
C509        C514   1.411       .  A
C510        C511   1.412       .  A
C510       Br522   1.929       .  S
C511        C512   1.411       .  A
C511       Br526   1.929       .  S
C512        C513   1.412       .  A
C512        C515   1.497       .  S
C513        C514   1.413       .  A
C513       Br521   1.928       .  S
C514       Br525   1.928       .  S
C515        C516   1.412       .  A
C515        C520   1.407       .  A
C516        C517   1.417       .  A
C516       Br527   1.927       .  S
C517        C518   1.414       .  A
C517       Br523   1.929       .  S
C518        C519   1.421       .  A
C519        C520   1.409       .  A
C519      Br1276   1.936       .  S
C520       Br524   1.933       .  S
Br528      C1267   1.936       .  S
C529        C530   1.413       .  A
C529        C534   1.410       .  A
C530        C531   1.415       .  A
C530       Br542   1.927       .  S
C531        C532   1.411       .  A
C531       Br546   1.927       .  S
C532        C533   1.410       .  A
C532        C535   1.492       .  S
C533        C534   1.405       .  A
C533       Br541   1.927       .  S
C534       Br545   1.931       .  S
C535        C536   1.406       .  A
C535        C540   1.408       .  A
C536        C537   1.409       .  A
C536       Br547   1.930       .  S
C537        C538   1.420       .  A
C537       Br543   1.934       .  S
C538        C539   1.424       .  A
C539        C540   1.413       .  A
C540       Br544   1.930       .  S
C549        C550   1.434       .  A
C549        C554   1.430       .  A
C550        C551   1.415       .  A
C550       Br562   1.938   1_565  S
C551        C552   1.404       .  A
C551       Br566   1.935       .  S
C552        C553   1.404       .  A
C552        C555   1.497       .  S
C553        C554   1.414       .  A
C553       Br561   1.934       .  S
C554       Br565   1.930       .  S
C555        C556   1.412       .  A
C555        C560   1.410       .  A
C556        C557   1.414       .  A
C556       Br567   1.928       .  S
C557        C558   1.413       .  A
C557       Br563   1.929       .  S
C558        C559   1.413       .  A
C559        C560   1.409       .  A
C559       Br568   1.931       .  S
C560       Br564   1.931       .  S
C569        C570   1.412       .  A
C569        C574   1.415       .  A
C570        C571   1.409       .  A
C570       Br582   1.931       .  S
C571        C572   1.410       .  A
C571       Br586   1.930       .  S
C572        C573   1.407       .  A
C572        C575   1.487       .  S
C573        C574   1.406       .  A
C573       Br581   1.934       .  S
C574       Br585   1.924       .  S
C575        C576   1.409       .  A
C575        C580   1.409       .  A
C576        C577   1.406       .  A
C576       Br587   1.934       .  S
C577        C578   1.416       .  A
C577       Br583   1.930       .  S
C578        C579   1.417       .  A
C579        C580   1.408       .  A
C579       Br588   1.933       .  S
C580       Br584   1.931       .  S
C589        C590   1.408       .  A
C589        C594   1.410       .  A
C590        C591   1.405       .  A
C590       Br602   1.930       .  S
C591        C592   1.410       .  A
C591       Br606   1.929       .  S
C592        C593   1.408       .  A
C592        C595   1.482       .  S
C593        C594   1.407       .  A
C593       Br601   1.928       .  S
C594       Br605   1.929       .  S
C595        C596   1.402       .  A
C595        C600   1.403       .  A
C596        C597   1.409       .  A
C596       Br607   1.934       .  S
C597        C598   1.430       .  A
C597       Br603   1.936   1_565  S
C598        C599   1.427       .  A
C599        C600   1.408       .  A
C599       Br608   1.938       .  S
C600       Br604   1.934       .  S
C609        C610   1.416       .  A
C609        C614   1.416       .  A
C610        C611   1.406       .  A
C611        C612   1.406       .  A
C611       Br626   1.934       .  S
C612        C613   1.407       .  A
C612        C615   1.483       .  S
C613        C614   1.409       .  A
C613       Br621   1.929       .  S
C614      Br1373   1.931   1_455  S
C615        C616   1.410       .  A
C615        C620   1.409       .  A
C616        C617   1.410       .  A
C616       Br627   1.927       .  S
C617        C618   1.409       .  A
C617       Br623   1.928       .  S
C618        C619   1.408       .  A
C619        C620   1.402       .  A
C619       Br628   1.930       .  S
C620       Br624   1.931       .  S
Br625      C1362   1.931       .  S
C629        C630   1.424       .  A
C629        C634   1.419       .  A
C630        C631   1.404       .  A
C630       Br642   1.931       .  S
C631        C632   1.402       .  A
C631       Br646   1.934       .  S
C632        C633   1.403       .  A
C632        C635   1.473       .  S
C633        C634   1.404       .  A
C633       Br641   1.931       .  S
C634       Br645   1.934       .  S
C635        C636   1.408       .  A
C635        C640   1.405       .  A
C636        C637   1.402       .  A
C636       Br647   1.932       .  S
C637        C638   1.410       .  A
C637       Br643   1.932       .  S
C638        C639   1.413       .  A
C639        C640   1.404       .  A
C639       Br648   1.931       .  S
C640       Br644   1.930       .  S
C649        C650   1.418       .  A
C649        C654   1.417       .  A
C650        C651   1.405       .  A
C650       Br662   1.934       .  S
C651        C652   1.408       .  A
C651       Br666   1.933       .  S
C652        C653   1.407       .  A
C652        C655   1.481       .  S
C653        C654   1.404       .  A
C653       Br661   1.933       .  S
C654       Br665   1.933       .  S
C655        C656   1.409       .  A
C655        C660   1.408       .  A
C656        C657   1.405       .  A
C656       Br667   1.931       .  S
C657        C658   1.414       .  A
C657       Br663   1.935       .  S
C658        C659   1.413       .  A
C659        C660   1.403       .  A
C659       Br668   1.929       .  S
C660       Br664   1.935       .  S
C669        C670   1.415       .  A
C669        C674   1.411       .  A
C670        C671   1.405       .  A
C671        C672   1.407       .  A
C671       Br686   1.933       .  S
C672        C673   1.407       .  A
C672        C675   1.477       .  S
C673        C674   1.404       .  A
C673       Br681   1.930       .  S
C674       Br685   1.930       .  S
C675        C676   1.409       .  A
C675        C680   1.409       .  A
C676        C677   1.406       .  A
C676       Br687   1.929       .  S
C677        C678   1.408       .  A
C677       Br683   1.928       .  S
C678        C679   1.411       .  A
C679        C680   1.402       .  A
C679       Br688   1.933       .  S
C680       Br684   1.933       .  S
C689        C690   1.409       .  A
C689        C694   1.408       .  A
C690        C691   1.403       .  A
C690       Br702   1.932       .  S
C691        C692   1.410       .  A
C691       Br706   1.928       .  S
C692        C693   1.410       .  A
C692        C695   1.485       .  S
C693        C694   1.410       .  A
C693       Br701   1.927   1_556  S
C694       Br705   1.927   1_556  S
C695        C696   1.407       .  A
C695        C700   1.405       .  A
C696        C697   1.410       .  A
C696       Br707   1.933       .  S
C697        C698   1.424       .  A
C697       Br703   1.935       .  S
C698        C699   1.418       .  A
C699        C700   1.407       .  A
C699       Br708   1.930       .  S
C700       Br704   1.931       .  S
C709        C710   1.418       .  A
C709        C714   1.411       .  A
C710        C711   1.403       .  A
C710       Br722   1.936       .  S
C711        C712   1.405       .  A
C711       Br726   1.934       .  S
C712        C713   1.410       .  A
C712        C715   1.483       .  S
C713        C714   1.411       .  A
C713       Br721   1.928       .  S
C714       Br725   1.928       .  S
C715        C716   1.409       .  A
C715        C720   1.410       .  A
C716        C717   1.406       .  A
C716       Br727   1.929   1_556  S
C717        C718   1.409       .  A
C717       Br723   1.929   1_556  S
C718        C719   1.410       .  A
C719        C720   1.408       .  A
C719       Br728   1.929       .  S
C720       Br724   1.929       .  S
C729        C730   1.425       .  A
C729        C734   1.425       .  A
C730        C731   1.407       .  A
C730       Br742   1.933       .  S
C731        C732   1.404       .  A
C731       Br746   1.935       .  S
C732        C733   1.405       .  A
C732        C735   1.485       .  S
C733        C734   1.410       .  A
C733       Br741   1.932       .  S
C734       Br745   1.936       .  S
C735        C736   1.407       .  A
C735        C740   1.408       .  A
C736        C737   1.405       .  A
C736       Br747   1.933       .  S
C737        C738   1.416       .  A
C737       Br743   1.933       .  S
C738        C739   1.415       .  A
C739        C740   1.410       .  A
C739       Br748   1.930   1_556  S
C740       Br744   1.929       .  S
C749        C750   1.405       .  A
C749        C754   1.406       .  A
C749       C1112   1.484       .  S
C750        C751   1.401       .  A
C750        H755   1.084       .  S
C751        C752   1.400       .  A
C751       C1063   1.477       .  S
C752        C753   1.399       .  A
C752        H756   1.084       .  S
C753        C754   1.407       .  A
C753       C1092   1.480       .  S
C754        H757   1.084       .  S
C758        C759   1.398       .  A
C758        C763   1.402       .  A
C758       C1052   1.474       .  S
C759        C760   1.398       .  A
C759        H764   1.084       .  S
C760        C761   1.404       .  A
C760       C1012   1.481       .  S
C761        C762   1.407       .  A
C761        H765   1.083       .  S
C762        C763   1.408       .  A
C762       C1023   1.493       .  S
C763        H766   1.084       .  S
C767        C768   1.400       .  A
C767        C772   1.402       .  A
C767        C963   1.482       .  S
C768        C769   1.401       .  A
C768        H773   1.086       .  S
C769        C770   1.406       .  A
C769        C952   1.484       .  S
C770        C771   1.402       .  A
C770        H774   1.081       .  S
C771        C772   1.402       .  A
C771        C992   1.475       .  S
C772        H775   1.084       .  S
C776        C777   1.402       .  A
C776        C781   1.402       .  A
C776        C903   1.477       .  S
C777        C778   1.401       .  A
C777        H782   1.084       .  S
C778        C779   1.405       .  A
C778        C883   1.479       .  S
C779        C780   1.406       .  A
C779        H783   1.084       .  S
C780        C781   1.404       .  A
C780        C932   1.484       .  S
C781        H784   1.084       .  S
O785        C793   1.264       .  A
O785      Co1179   1.899       .  S
O786        C794   1.261       .  A
O786       Co806   1.963       .  S
O787        C795   1.262       .  A
O788       C1170   1.280   1_545  A
O788       Co808   2.043       .  S
O789        C795   1.253       .  A
O789       Co806   1.969       .  S
O790       Co805   1.988       .  S
O791        C794   1.269       .  A
O791      Co1182   2.013       .  S
O792        C793   1.295       .  A
O792       Co807   2.103       .  S
C793        C983   1.489       .  S
C794        C972   1.498       .  S
C795       C1083   1.480       .  S
C796        C852   1.518       .  S
C796       O1162   1.279       .  A
O797        C810   1.265       .  A
O797       Co805   2.010   1_545  S
O798        C811   1.281       .  A
O798       Co806   2.044       .  S
O799        C812   1.268   1_565  A
O799      Co1181   1.899       .  S
O800        C813   1.263       .  A
O800       Co808   1.965       .  S
O801        C813   1.271   1_565  A
O801      Co1180   2.014       .  S
O802        C812   1.296       .  A
O802       Co805   2.113   1_545  S
O803        C810   1.255       .  A
O804       Co807   1.984       .  S
Co805      O1159   1.896       .  S
Co806      O1175   2.015       .  S
Co806       O809   2.023       .  S
Co807      O1173   1.893       .  S
Co808      O1165   2.013   1_545  S
Co808      O1183   2.032   1_545  S
O809      Co1182   2.034       .  S
C810        C943   1.472       .  S
C811        C863   1.523   1_556  S
C812       C1103   1.511       .  S
C813       C1072   1.495       .  S
O814        C822   1.267       .  A
O814      Co1208   1.887       .  S
O815        C823   1.264       .  A
O815       Co835   1.961       .  S
O816        C824   1.267       .  A
O817       C1199   1.277       .  A
O817       Co837   2.035   1_455  S
O818        C824   1.257       .  A
O818       Co835   1.966       .  S
O819       Co834   1.988   1_565  S
O820        C823   1.271       .  A
O820      Co1211   2.012       .  S
O821        C822   1.300       .  A
O821       Co836   2.126       .  S
C822        C923   1.518       .  S
C823        C912   1.491       .  S
C824       C1032   1.488       .  S
C825        C872   1.525       .  S
C825       O1191   1.279       .  A
O826        C839   1.266       .  A
O826       Co834   2.024       .  S
O827        C840   1.278       .  A
O827       Co835   2.036       .  S
O828        C841   1.267       .  A
O828      Co1210   1.889   1_545  S
O829        C842   1.261       .  A
O829       Co837   1.962       .  S
O830        C842   1.269   1_565  A
O830      Co1209   2.011       .  S
O831        C841   1.298       .  A
O831       Co834   2.109       .  S
O832        C839   1.253       .  A
O833       Co836   1.990       .  S
Co834      O1188   1.890       .  S
Co835      O1204   1.998       .  S
Co835       O838   2.024       .  S
Co836      O1202   1.884       .  S
Co837      O1194   2.023       .  S
Co837      O1212   2.022       .  S
O838      Co1211   2.018       .  S
C839        C892   1.486       .  S
C840        C843   1.523       .  S
C841       C1043   1.480       .  S
C842       C1003   1.499       .  S
C843        C848   1.429       .  A
C844        C845   1.418       .  A
C844       Br856   1.931       .  S
C845       Br860   1.935       .  S
C846        C847   1.407       .  A
C846        C849   1.506       .  S
C847        C848   1.416       .  A
C847       Br855   1.933       .  S
C848       Br859   1.935       .  S
C849        C854   1.409       .  A
C850        C851   1.418       .  A
C850       Br861   1.934       .  S
C851       Br857   1.929       .  S
C852        C853   1.425       .  A
C853        C854   1.416       .  A
C853       Br862   1.931       .  S
C854       Br858   1.931       .  S
C863        C868   1.429       .  A
C864        C865   1.419       .  A
C864       Br876   1.935       .  S
C865       Br880   1.933       .  S
C866        C867   1.408       .  A
C866        C869   1.512       .  S
C867        C868   1.418       .  A
C867       Br875   1.933       .  S
C868       Br879   1.934       .  S
C869        C874   1.408       .  A
C870        C871   1.420       .  A
C870       Br881   1.933       .  S
C871       Br877   1.934       .  S
C872        C873   1.430   1_455  A
C873        C874   1.419       .  A
C873       Br882   1.934       .  S
C874       Br878   1.933       .  S
C883        C884   1.409       .  A
C883        C888   1.409       .  A
C884        C885   1.407       .  A
C884       Br896   1.929       .  S
C885        C886   1.409       .  A
C885       Br900   1.930       .  S
C886        C887   1.410       .  A
C886        C889   1.486       .  S
C887        C888   1.408       .  A
C887       Br895   1.928       .  S
C888       Br899   1.929       .  S
C889        C890   1.410       .  A
C889        C894   1.405       .  A
C890        C891   1.412       .  A
C890       Br901   1.928       .  S
C891        C892   1.414       .  A
C891       Br897   1.930       .  S
C892        C893   1.420       .  A
C893        C894   1.405       .  A
C894       Br898   1.934       .  S
C903        C904   1.410       .  A
C903        C908   1.408       .  A
C904        C905   1.410       .  A
C904       Br916   1.927       .  S
C905        C906   1.408       .  A
C905       Br920   1.927       .  S
C906        C907   1.409       .  A
C906        C909   1.481       .  S
C907        C908   1.402       .  A
C907       Br915   1.928       .  S
C908       Br919   1.932       .  S
C909        C910   1.405       .  A
C909        C914   1.406       .  A
C910        C911   1.406       .  A
C910       Br921   1.929       .  S
C911        C912   1.417       .  A
C911       Br917   1.934       .  S
C912        C913   1.422       .  A
C913        C914   1.407       .  A
C913      Br1296   1.935       .  S
C914       Br918   1.932       .  S
Br922      C1287   1.934   1_545  S
C923        C924   1.432       .  A
C923        C928   1.432       .  A
C924        C925   1.413       .  A
C924       Br936   1.937       .  S
C925        C926   1.403       .  A
C925       Br940   1.934       .  S
C926        C927   1.400       .  A
C926        C929   1.489       .  S
C927        C928   1.410       .  A
C927       Br935   1.937       .  S
C928       Br939   1.927       .  S
C929        C930   1.409       .  A
C929        C934   1.410       .  A
C930        C931   1.409       .  A
C930       Br941   1.928       .  S
C931        C932   1.411       .  A
C931       Br937   1.930       .  S
C932        C933   1.412       .  A
C933        C934   1.408       .  A
C933       Br942   1.931       .  S
C934       Br938   1.931       .  S
C943        C944   1.413       .  A
C943        C948   1.411       .  A
C944        C945   1.406       .  A
C944       Br956   1.932       .  S
C945        C946   1.408       .  A
C945       Br960   1.929       .  S
C946        C947   1.406       .  A
C946        C949   1.477       .  S
C947        C948   1.401       .  A
C947       Br955   1.934       .  S
C948       Br959   1.924       .  S
C949        C950   1.407       .  A
C949        C954   1.406       .  A
C950        C951   1.404       .  A
C950       Br961   1.934       .  S
C951        C952   1.416       .  A
C951       Br957   1.931       .  S
C952        C953   1.415       .  A
C953        C954   1.405       .  A
C953       Br962   1.932       .  S
C954       Br958   1.931       .  S
C963        C964   1.413       .  A
C963        C968   1.413       .  A
C964        C965   1.406       .  A
C964       Br976   1.932       .  S
C965        C966   1.408       .  A
C965       Br980   1.931       .  S
C966        C967   1.407       .  A
C966        C969   1.482       .  S
C967        C968   1.406       .  A
C967       Br975   1.929       .  S
C968       Br979   1.931       .  S
C969        C970   1.404       .  A
C969        C974   1.405       .  A
C970        C971   1.407       .  A
C970       Br981   1.933       .  S
C971        C972   1.424       .  A
C971       Br977   1.931       .  S
C972        C973   1.420       .  A
C973        C974   1.408       .  A
C973       Br982   1.934       .  S
C974       Br978   1.931       .  S
C983        C984   1.417       .  A
C983        C988   1.415       .  A
C984        C985   1.406       .  A
C984      Br1370   1.926       .  S
C985        C986   1.406       .  A
C985      Br1000   1.934       .  S
C986        C987   1.407       .  A
C986        C989   1.483       .  S
C987        C988   1.409       .  A
C987       Br995   1.928       .  S
C989        C990   1.410       .  A
C989        C994   1.409       .  A
C990        C991   1.410       .  A
C990      Br1001   1.927       .  S
C991        C992   1.409       .  A
C991       Br997   1.928       .  S
C992        C993   1.407       .  A
C993        C994   1.402       .  A
C993      Br1002   1.931       .  S
C994       Br998   1.929       .  S
Br996      C1358   1.925       .  S
C1003      C1004   1.427       .  A
C1003      C1008   1.422       .  A
C1004      C1005   1.407       .  A
C1004     Br1016   1.931   1_545  S
C1005      C1006   1.402       .  A
C1005     Br1020   1.935       .  S
C1006      C1007   1.404       .  A
C1006      C1009   1.481       .  S
C1007      C1008   1.408       .  A
C1007     Br1015   1.932       .  S
C1008     Br1019   1.935       .  S
C1009      C1010   1.408       .  A
C1009      C1014   1.407       .  A
C1010      C1011   1.405       .  A
C1010     Br1021   1.931       .  S
C1011      C1012   1.412       .  A
C1011     Br1017   1.932       .  S
C1012      C1013   1.414       .  A
C1013      C1014   1.407       .  A
C1013     Br1022   1.931       .  S
C1014     Br1018   1.930       .  S
C1023      C1024   1.418       .  A
C1023      C1028   1.417       .  A
C1024      C1025   1.406       .  A
C1024     Br1036   1.933       .  S
C1025      C1026   1.408       .  A
C1025     Br1040   1.933       .  S
C1026      C1027   1.410       .  A
C1026      C1029   1.488       .  S
C1027      C1028   1.408       .  A
C1027     Br1035   1.932       .  S
C1028     Br1039   1.932       .  S
C1029      C1030   1.410       .  A
C1029      C1034   1.408       .  A
C1030      C1031   1.409       .  A
C1030     Br1041   1.932       .  S
C1031      C1032   1.416       .  A
C1031     Br1037   1.934       .  S
C1032      C1033   1.417       .  A
C1033      C1034   1.406       .  A
C1033     Br1042   1.927       .  S
C1034     Br1038   1.935       .  S
C1043      C1044   1.415       .  A
C1043      C1048   1.413       .  A
C1044      C1045   1.406       .  A
C1044     Br1430   1.929   1_545  S
C1045      C1046   1.407       .  A
C1045     Br1060   1.933       .  S
C1046      C1047   1.407       .  A
C1046      C1049   1.480       .  S
C1047      C1048   1.406       .  A
C1047     Br1055   1.929       .  S
C1048     Br1059   1.930       .  S
C1049      C1050   1.409       .  A
C1049      C1054   1.409       .  A
C1050      C1051   1.409       .  A
C1050     Br1061   1.927       .  S
C1051      C1052   1.408       .  A
C1051     Br1057   1.927       .  S
C1052      C1053   1.409       .  A
C1053      C1054   1.402       .  A
C1053     Br1062   1.932       .  S
C1054     Br1058   1.933       .  S
Br1056     C1418   1.930       .  S
C1063      C1064   1.410       .  A
C1063      C1068   1.410   1_556  A
C1064      C1065   1.402       .  A
C1064     Br1076   1.933       .  S
C1065      C1066   1.409       .  A
C1065     Br1080   1.931       .  S
C1066      C1067   1.410   1_556  A
C1066      C1069   1.483       .  S
C1067      C1068   1.410       .  A
C1067     Br1075   1.927       .  S
C1068     Br1079   1.928       .  S
C1069      C1070   1.405       .  A
C1069      C1074   1.406       .  A
C1070      C1071   1.408       .  A
C1070     Br1081   1.934       .  S
C1071      C1072   1.423       .  A
C1071     Br1077   1.934   1_545  S
C1072      C1073   1.419       .  A
C1073      C1074   1.409       .  A
C1073     Br1082   1.933       .  S
C1074     Br1078   1.930   1_556  S
C1083      C1084   1.416       .  A
C1083      C1088   1.413       .  A
C1084      C1085   1.403       .  A
C1084     Br1096   1.936       .  S
C1085      C1086   1.407       .  A
C1085     Br1100   1.934       .  S
C1086      C1087   1.409       .  A
C1086      C1089   1.482       .  S
C1087      C1088   1.410       .  A
C1087     Br1095   1.928       .  S
C1088     Br1099   1.927   1_655  S
C1089      C1090   1.409       .  A
C1089      C1094   1.409       .  A
C1090      C1091   1.407       .  A
C1090     Br1101   1.930       .  S
C1091      C1092   1.410       .  A
C1091     Br1097   1.929   1_556  S
C1092      C1093   1.411       .  A
C1093      C1094   1.407       .  A
C1093     Br1102   1.930       .  S
C1094     Br1098   1.930       .  S
C1103      C1104   1.429       .  A
C1103      C1108   1.427       .  A
C1104      C1105   1.409       .  A
C1104     Br1116   1.932       .  S
C1105      C1106   1.403       .  A
C1105     Br1120   1.935       .  S
C1106      C1107   1.406       .  A
C1106      C1109   1.491       .  S
C1107      C1108   1.413       .  A
C1107     Br1115   1.933       .  S
C1108     Br1119   1.935       .  S
C1109      C1110   1.411       .  A
C1109      C1114   1.412       .  A
C1110      C1111   1.406       .  A
C1110     Br1121   1.932       .  S
C1111      C1112   1.410       .  A
C1111     Br1117   1.931       .  S
C1112      C1113   1.411       .  A
C1113      C1114   1.412       .  A
C1113     Br1122   1.928   1_556  S
C1114     Br1118   1.929   1_556  S
C1123      C1124   1.405       .  A
C1123      C1128   1.408       .  A
C1123      C1486   1.488       .  S
C1124      C1125   1.400       .  A
C1124      H1129   1.084       .  S
C1125      C1126   1.399       .  A
C1125      C1437   1.476       .  S
C1126      C1127   1.400       .  A
C1126      H1130   1.084       .  S
C1127      C1128   1.405       .  A
C1127      C1466   1.477       .  S
C1128      H1131   1.084       .  S
C1132      C1133   1.397       .  A
C1132      C1137   1.401       .  A
C1132      C1426   1.472       .  S
C1133      C1134   1.395       .  A
C1133      H1138   1.084       .  S
C1134      C1135   1.400       .  A
C1134      C1386   1.473       .  S
C1135      C1136   1.405       .  A
C1135      H1139   1.084       .  S
C1136      C1137   1.407       .  A
C1136      C1397   1.488       .  S
C1137      H1140   1.083       .  S
C1141      C1142   1.400       .  A
C1141      C1146   1.398       .  A
C1141      C1337   1.475       .  S
C1142      C1143   1.404       .  A
C1142      H1147   1.087       .  S
C1143      C1144   1.409       .  A
C1143      C1326   1.491       .  S
C1144      C1145   1.405       .  A
C1144      H1148   1.080       .  S
C1145      C1146   1.400       .  A
C1145      C1366   1.476       .  S
C1146      H1149   1.084       .  S
C1150      C1151   1.407       .  A
C1150      C1155   1.404       .  A
C1150      C1277   1.488       .  S
C1151      C1152   1.406       .  A
C1151      H1156   1.084       .  S
C1152      C1153   1.408       .  A
C1152      C1257   1.491       .  S
C1153      C1154   1.408       .  A
C1153      H1157   1.084       .  S
C1154      C1155   1.407       .  A
C1154      C1306   1.492       .  S
C1155      H1158   1.084       .  S
O1159      C1167   1.265       .  A
O1160      C1168   1.259       .  A
O1160     Co1180   1.961       .  S
O1161      C1169   1.265       .  A
O1162     Co1182   2.037       .  S
O1163      C1169   1.251       .  A
O1163     Co1180   1.960       .  S
O1164     Co1179   1.994       .  S
O1165      C1168   1.268       .  A
O1166      C1167   1.296       .  A
O1166     Co1181   2.107       .  S
C1167      C1357   1.486       .  S
C1168      C1346   1.504       .  S
C1169      C1457   1.481       .  S
C1170      C1226   1.523       .  S
O1171      C1184   1.264       .  A
O1171     Co1179   2.009       .  S
O1172      C1185   1.278       .  A
O1172     Co1180   2.037       .  S
O1173      C1186   1.266       .  A
O1174      C1187   1.265       .  A
O1174     Co1182   1.969       .  S
O1175      C1187   1.270       .  A
O1176      C1186   1.296       .  A
O1176     Co1179   2.110       .  S
O1177      C1184   1.260       .  A
O1178     Co1181   1.987   1_545  S
Co1180     O1183   2.010       .  S
C1184      C1317   1.483       .  S
C1185      C1237   1.527   1_556  S
C1186      C1477   1.500       .  S
C1187      C1446   1.498       .  S
O1188      C1196   1.263   1_545  A
O1189      C1197   1.263       .  A
O1189     Co1209   1.967       .  S
O1190      C1198   1.264       .  A
O1191     Co1211   2.045   1_455  S
O1192      C1198   1.255       .  A
O1192     Co1209   1.964       .  S
O1193     Co1208   1.993       .  S
O1194      C1197   1.272   1_545  A
O1195      C1196   1.301       .  A
O1195     Co1210   2.134       .  S
C1196      C1297   1.521       .  S
C1197      C1286   1.503       .  S
C1198      C1406   1.475       .  S
C1199      C1246   1.522       .  S
O1200      C1213   1.270       .  A
O1200     Co1208   2.041       .  S
O1201      C1214   1.279       .  A
O1201     Co1209   2.039       .  S
O1202      C1215   1.267       .  A
O1203      C1216   1.262       .  A
O1203     Co1211   1.965       .  S
O1204      C1216   1.266       .  A
O1205      C1215   1.299       .  A
O1205     Co1208   2.111       .  S
O1206      C1213   1.254       .  A
O1207     Co1210   1.993   1_545  S
Co1209     O1212   2.024   1_565  S
C1213      C1266   1.495       .  S
C1214      C1217   1.523   1_565  S
C1215      C1417   1.476       .  S
C1216      C1377   1.491       .  S
C1217      C1222   1.428   1_545  A
C1218      C1219   1.417       .  A
C1218     Br1230   1.933       .  S
C1219     Br1234   1.933       .  S
C1220      C1221   1.408       .  A
C1220      C1223   1.508       .  S
C1221      C1222   1.417       .  A
C1221     Br1229   1.931       .  S
C1222     Br1233   1.934       .  S
C1223      C1228   1.408   1_565  A
C1224      C1225   1.416       .  A
C1224     Br1235   1.935       .  S
C1225     Br1231   1.928       .  S
C1226      C1227   1.425   1_565  A
C1227      C1228   1.416       .  A
C1227     Br1236   1.931       .  S
C1228     Br1232   1.931       .  S
C1237      C1242   1.435       .  A
C1238      C1239   1.420       .  A
C1238     Br1250   1.933   1_554  S
C1239     Br1254   1.931       .  S
C1240      C1241   1.404       .  A
C1240      C1243   1.505       .  S
C1241      C1242   1.416       .  A
C1241     Br1249   1.937       .  S
C1242     Br1253   1.935       .  S
C1243      C1248   1.405   1_565  A
C1244      C1245   1.419       .  A
C1244     Br1255   1.932       .  S
C1245     Br1251   1.935       .  S
C1246      C1247   1.432   1_455  A
C1247      C1248   1.415       .  A
C1247     Br1256   1.937       .  S
C1248     Br1252   1.935       .  S
C1257      C1258   1.412       .  A
C1257      C1262   1.411       .  A
C1258      C1259   1.412       .  A
C1258     Br1270   1.929       .  S
C1259      C1260   1.411       .  A
C1259     Br1274   1.929       .  S
C1260      C1261   1.412       .  A
C1260      C1263   1.497       .  S
C1261      C1262   1.413       .  A
C1261     Br1269   1.928       .  S
C1262     Br1273   1.928       .  S
C1263      C1264   1.412       .  A
C1263      C1268   1.407       .  A
C1264      C1265   1.417       .  A
C1264     Br1275   1.927       .  S
C1265      C1266   1.414       .  A
C1265     Br1271   1.929       .  S
C1266      C1267   1.421       .  A
C1267      C1268   1.409       .  A
C1268     Br1272   1.933       .  S
C1277      C1278   1.413       .  A
C1277      C1282   1.410       .  A
C1278      C1279   1.415       .  A
C1278     Br1290   1.927       .  S
C1279      C1280   1.411       .  A
C1279     Br1294   1.927       .  S
C1280      C1281   1.410       .  A
C1280      C1283   1.492       .  S
C1281      C1282   1.405       .  A
C1281     Br1289   1.927       .  S
C1282     Br1293   1.931       .  S
C1283      C1284   1.406       .  A
C1283      C1288   1.408       .  A
C1284      C1285   1.409       .  A
C1284     Br1295   1.930       .  S
C1285      C1286   1.420       .  A
C1285     Br1291   1.934       .  S
C1286      C1287   1.424       .  A
C1287      C1288   1.413       .  A
C1288     Br1292   1.930       .  S
C1297      C1298   1.434       .  A
C1297      C1302   1.430       .  A
C1298      C1299   1.415       .  A
C1298     Br1310   1.938   1_565  S
C1299      C1300   1.404       .  A
C1299     Br1314   1.935       .  S
C1300      C1301   1.404       .  A
C1300      C1303   1.497       .  S
C1301      C1302   1.414       .  A
C1301     Br1309   1.934       .  S
C1302     Br1313   1.930       .  S
C1303      C1304   1.412       .  A
C1303      C1308   1.410       .  A
C1304      C1305   1.414       .  A
C1304     Br1315   1.928       .  S
C1305      C1306   1.413       .  A
C1305     Br1311   1.929       .  S
C1306      C1307   1.413       .  A
C1307      C1308   1.409       .  A
C1307     Br1316   1.931       .  S
C1308     Br1312   1.931       .  S
C1317      C1318   1.412       .  A
C1317      C1322   1.415       .  A
C1318      C1319   1.409       .  A
C1318     Br1330   1.931       .  S
C1319      C1320   1.410       .  A
C1319     Br1334   1.930       .  S
C1320      C1321   1.407       .  A
C1320      C1323   1.487       .  S
C1321      C1322   1.406       .  A
C1321     Br1329   1.934       .  S
C1322     Br1333   1.924       .  S
C1323      C1324   1.409       .  A
C1323      C1328   1.409       .  A
C1324      C1325   1.406       .  A
C1324     Br1335   1.934       .  S
C1325      C1326   1.416       .  A
C1325     Br1331   1.930       .  S
C1326      C1327   1.417       .  A
C1327      C1328   1.408       .  A
C1327     Br1336   1.933       .  S
C1328     Br1332   1.931       .  S
C1337      C1338   1.408       .  A
C1337      C1342   1.410       .  A
C1338      C1339   1.405       .  A
C1338     Br1350   1.930       .  S
C1339      C1340   1.409       .  A
C1339     Br1354   1.929       .  S
C1340      C1341   1.408       .  A
C1340      C1343   1.482       .  S
C1341      C1342   1.407       .  A
C1341     Br1349   1.929       .  S
C1342     Br1353   1.929       .  S
C1343      C1344   1.402       .  A
C1343      C1348   1.403       .  A
C1344      C1345   1.409       .  A
C1344     Br1355   1.934       .  S
C1345      C1346   1.430       .  A
C1345     Br1351   1.936   1_565  S
C1346      C1347   1.427       .  A
C1347      C1348   1.408       .  A
C1347     Br1356   1.938       .  S
C1348     Br1352   1.934       .  S
C1357      C1358   1.416       .  A
C1357      C1362   1.415       .  A
C1358      C1359   1.406       .  A
C1359      C1360   1.406       .  A
C1359     Br1374   1.934       .  S
C1360      C1361   1.407       .  A
C1360      C1363   1.483       .  S
C1361      C1362   1.409       .  A
C1361     Br1369   1.929       .  S
C1363      C1364   1.410       .  A
C1363      C1368   1.409       .  A
C1364      C1365   1.410       .  A
C1364     Br1375   1.927       .  S
C1365      C1366   1.409       .  A
C1365     Br1371   1.928       .  S
C1366      C1367   1.408       .  A
C1367      C1368   1.402       .  A
C1367     Br1376   1.930       .  S
C1368     Br1372   1.931       .  S
C1377      C1378   1.424       .  A
C1377      C1382   1.419       .  A
C1378      C1379   1.404       .  A
C1378     Br1390   1.931       .  S
C1379      C1380   1.402       .  A
C1379     Br1394   1.934       .  S
C1380      C1381   1.403       .  A
C1380      C1383   1.473       .  S
C1381      C1382   1.404       .  A
C1381     Br1389   1.931       .  S
C1382     Br1393   1.934       .  S
C1383      C1384   1.408       .  A
C1383      C1388   1.405       .  A
C1384      C1385   1.402       .  A
C1384     Br1395   1.932       .  S
C1385      C1386   1.410       .  A
C1385     Br1391   1.932       .  S
C1386      C1387   1.413       .  A
C1387      C1388   1.404       .  A
C1387     Br1396   1.931       .  S
C1388     Br1392   1.930       .  S
C1397      C1398   1.418       .  A
C1397      C1402   1.417       .  A
C1398      C1399   1.405       .  A
C1398     Br1410   1.934       .  S
C1399      C1400   1.408       .  A
C1399     Br1414   1.933       .  S
C1400      C1401   1.407       .  A
C1400      C1403   1.481       .  S
C1401      C1402   1.404       .  A
C1401     Br1409   1.933       .  S
C1402     Br1413   1.933       .  S
C1403      C1404   1.409       .  A
C1403      C1408   1.408       .  A
C1404      C1405   1.405       .  A
C1404     Br1415   1.931       .  S
C1405      C1406   1.414       .  A
C1405     Br1411   1.935       .  S
C1406      C1407   1.413       .  A
C1407      C1408   1.403       .  A
C1407     Br1416   1.929       .  S
C1408     Br1412   1.935       .  S
C1417      C1418   1.415       .  A
C1417      C1422   1.411       .  A
C1418      C1419   1.405       .  A
C1419      C1420   1.407       .  A
C1419     Br1434   1.933       .  S
C1420      C1421   1.407       .  A
C1420      C1423   1.477       .  S
C1421      C1422   1.404       .  A
C1421     Br1429   1.930       .  S
C1422     Br1433   1.930       .  S
C1423      C1424   1.409       .  A
C1423      C1428   1.409       .  A
C1424      C1425   1.406       .  A
C1424     Br1435   1.929       .  S
C1425      C1426   1.408       .  A
C1425     Br1431   1.928       .  S
C1426      C1427   1.411       .  A
C1427      C1428   1.402       .  A
C1427     Br1436   1.933       .  S
C1428     Br1432   1.933       .  S
C1437      C1438   1.409       .  A
C1437      C1442   1.408       .  A
C1438      C1439   1.403       .  A
C1438     Br1450   1.932       .  S
C1439      C1440   1.410       .  A
C1439     Br1454   1.928       .  S
C1440      C1441   1.410       .  A
C1440      C1443   1.485       .  S
C1441      C1442   1.410       .  A
C1441     Br1449   1.927   1_556  S
C1442     Br1453   1.927   1_556  S
C1443      C1444   1.407       .  A
C1443      C1448   1.405       .  A
C1444      C1445   1.410       .  A
C1444     Br1455   1.933       .  S
C1445      C1446   1.424       .  A
C1445     Br1451   1.935       .  S
C1446      C1447   1.418       .  A
C1447      C1448   1.407       .  A
C1447     Br1456   1.930       .  S
C1448     Br1452   1.931       .  S
C1457      C1458   1.418       .  A
C1457      C1462   1.411       .  A
C1458      C1459   1.403       .  A
C1458     Br1470   1.936       .  S
C1459      C1460   1.405       .  A
C1459     Br1474   1.934       .  S
C1460      C1461   1.410       .  A
C1460      C1463   1.483       .  S
C1461      C1462   1.411       .  A
C1461     Br1469   1.928       .  S
C1462     Br1473   1.928   1_655  S
C1463      C1464   1.409       .  A
C1463      C1468   1.410       .  A
C1464      C1465   1.406       .  A
C1464     Br1475   1.929   1_556  S
C1465      C1466   1.409       .  A
C1465     Br1471   1.929   1_556  S
C1466      C1467   1.410       .  A
C1467      C1468   1.408       .  A
C1467     Br1476   1.929       .  S
C1468     Br1472   1.929       .  S
C1477      C1478   1.425       .  A
C1477      C1482   1.425       .  A
C1478      C1479   1.407       .  A
C1478     Br1490   1.933       .  S
C1479      C1480   1.404       .  A
C1479     Br1494   1.935       .  S
C1480      C1481   1.405       .  A
C1480      C1483   1.485       .  S
C1481      C1482   1.410       .  A
C1481     Br1489   1.932       .  S
C1482     Br1493   1.936       .  S
C1483      C1484   1.407       .  A
C1483      C1488   1.408       .  A
C1484      C1485   1.405       .  A
C1484     Br1495   1.933       .  S
C1485      C1486   1.416       .  A
C1485     Br1491   1.933       .  S
C1486      C1487   1.414       .  A
C1487      C1488   1.410       .  A
C1487     Br1496   1.930   1_556  S
C1488     Br1492   1.929       .  S
