geometry optimzed in LAMMPS
_audit_creation_date              2020-11-30 
_audit_creation_method            'lammps2cif' 
_symmetry_space_group_name_H-M    'P1' 
_symmetry_Int_Tables_number       1 
_symmetry_cell_setting            triclinic 
loop_ 
_symmetry_equiv_pos_as_xyz 
  x,y,z 
_cell_length_a                    29.9115145405796 
_cell_length_b                    43.4963603504472 
_cell_length_c                    26.89373928816322 
_cell_angle_alpha                 90.45199887913805 
_cell_angle_beta                  85.84197705291494 
_cell_angle_gamma                 89.99419067673114 
loop_ 
_atom_site_label 
_atom_site_type_symbol 
_atom_site_fract_x 
_atom_site_fract_y 
_atom_site_fract_z 
_atom_site_charge 
O1          O  0.08836631  0.95376872  0.49924648    -0.72720
O2          O  0.09135676  0.04609493  0.49918802    -0.73700
O3          O  0.08951391  0.99982958  0.42483586    -0.62320
O4          O  0.08966082  0.00012873  0.07356807    -0.70730
O5          O  0.16410133  0.99866892  0.06754059    -0.70280
O6          O  0.16398303  0.99956638  0.41866424    -0.61530
O7          O  0.16550551  0.04500334  0.99413902    -0.74040
O8          O  0.16281222  0.95306572  0.99169101    -0.72820
Cu9        Cu  0.08709819  0.99999826  0.49944535     1.04560
Cu10       Cu  0.16668705  0.99900967  0.99284509     1.04330
C11         C  0.12533084  0.93894662  0.49517498     0.93480
C12         C  0.12894935  0.06020281  0.99651960     0.92620
C13         C  0.12669872  0.99985451  0.39834359     0.84770
C14         C  0.12686843  0.99940660  0.09396408     0.91040
O15         O  0.08969634  0.95393516  0.24905250    -0.72720
O16         O  0.08890247  0.04600753  0.24936049    -0.73700
O17         O  0.08950173  0.99971174  0.17467046    -0.62320
O18         O  0.08934887  0.00011264  0.32358467    -0.70730
O19         O  0.16382049  0.00032037  0.31756138    -0.70280
O20         O  0.16397332  0.99943147  0.16879977    -0.61530
O21         O  0.16340924  0.04618388  0.24298369    -0.74040
O22         O  0.16389162  0.95367427  0.24360801    -0.72820
Cu23       Cu  0.08677546  0.99993914  0.24930993     1.04560
Cu24       Cu  0.16639861  0.99992729  0.24297483     1.04330
C25         C  0.12671924  0.93912567  0.24671692     0.93480
C26         C  0.12603231  0.06055735  0.24615389     0.92620
C27         C  0.12678155  0.99949295  0.14832583     0.84770
C28         C  0.12660448  0.00014310  0.34398486     0.91040
C29         C  0.12641398  0.19387865  0.00934099     0.03360
C30         C  0.08747768  0.21127097  0.00539163    -0.12790
C31         C  0.08629375  0.24280935  0.01738933     0.00860
C32         C  0.12669869  0.25751542  0.02677037    -0.11320
C33         C  0.16786720  0.24176425  0.02086068     0.03350
C34         C  0.16688597  0.20954388  0.01509425    -0.10740
H35         H  0.05799813  0.20000649  0.99321691     0.08860
H36         H  0.12634376  0.28139830  0.03794652     0.06470
H37         H  0.19753110  0.19645219  0.01385048     0.06320
C38         C  0.12314602  0.19286737  0.25782172     0.03360
C39         C  0.08253880  0.20896291  0.26078311    -0.12790
C40         C  0.08123533  0.24079113  0.27159349     0.00860
C41         C  0.12190717  0.25572890  0.27933172    -0.11320
C42         C  0.16339157  0.24062918  0.27048844     0.03350
C43         C  0.16339410  0.20888811  0.25986616    -0.10740
H44         H  0.05237589  0.19619297  0.25475326     0.08940
H45         H  0.12140527  0.27924875  0.29228594     0.06470
H46         H  0.19435264  0.19618242  0.25330229     0.06320
C47         C  0.13100704  0.80680275  0.47823507     0.03360
C48         C  0.09106520  0.79064298  0.97333625    -0.12790
C49         C  0.09134115  0.75863647  0.96397693     0.00860
C50         C  0.13319512  0.74360449  0.95861200    -0.11320
C51         C  0.17309683  0.75900542  0.96837779     0.03350
C52         C  0.17137368  0.79069908  0.97853656    -0.10740
H53         H  0.06009152  0.80347944  0.97771737     0.08940
H54         H  0.13504010  0.71973997  0.94739854     0.06470
H55         H  0.20124683  0.80314775  0.98707573     0.06320
C56         C  0.11616137  0.80599356  0.26456424     0.03360
C57         C  0.07683460  0.78899276  0.26057084    -0.12790
C58         C  0.07484287  0.75778915  0.27362937     0.00860
C59         C  0.11436071  0.74298294  0.28578627    -0.11320
C60         C  0.15605800  0.75813609  0.28128642     0.03350
C61         C  0.15587379  0.79015596  0.27297336    -0.10740
H62         H  0.04766847  0.80021446  0.24768951     0.08940
H63         H  0.11236365  0.71948464  0.29824512     0.06470
H64         H  0.18654684  0.80319022  0.27193183     0.06320
C65         C  0.25545357  0.69428887  0.98758598     0.03360
C66         C  0.21567857  0.71126361  0.98687448    -0.12790
C67         C  0.21600018  0.74175358  0.97032476     0.00860
C68         C  0.00744624  0.75594156  0.95777359    -0.11320
C69         C  0.04819265  0.74085130  0.96469292     0.03350
C70         C  0.04656183  0.70926170  0.97665557    -0.10740
H71         H  0.18426134  0.70026116  0.99864764     0.08940
H72         H  0.00778350  0.77892721  0.94290621     0.06470
H73         H  0.07688506  0.69611573  0.97893183     0.06320
C74         C  0.24135597  0.69290564  0.25985875     0.03360
C75         C  0.20058765  0.70846135  0.26940553    -0.12790
C76         C  0.19939299  0.74034498  0.28011360     0.00860
C77         C  0.99061731  0.75544154  0.28501230    -0.11320
C78         C  0.03179051  0.74053555  0.27317355     0.03350
C79         C  0.03158662  0.70925651  0.26006977    -0.10740
H80         H  0.17020932  0.69526403  0.26835165     0.08940
H81         H  0.99118546  0.77888724  0.29826414     0.06470
H82         H  0.06270728  0.69719878  0.25040484     0.06320
C83         C  0.25252612  0.30682486  0.49774726     0.03360
C84         C  0.04284378  0.29178629  0.50536006    -0.12790
C85         C  0.04329077  0.26028574  0.01712491     0.00860
C86         C  0.25203880  0.24507510  0.02666997    -0.11320
C87         C  0.21123953  0.25922018  0.01729182     0.03350
C88         C  0.21246466  0.28997087  0.50110263    -0.10740
H89         H  0.07362752  0.30475774  0.50112994     0.08940
H90         H  0.25207490  0.22209718  0.04138602     0.06470
H91         H  0.18217366  0.30140713  0.49150733     0.06320
C92         C  0.24749580  0.30634652  0.25938047     0.03360
C93         C  0.03790892  0.29050100  0.26301655    -0.12790
C94         C  0.03817732  0.25857397  0.27229339     0.00860
C95         C  0.24667498  0.24343873  0.27971478    -0.11320
C96         C  0.20630239  0.25822629  0.27053132     0.03350
C97         C  0.20753740  0.28976115  0.25927261    -0.10740
H98         H  0.06872104  0.30343558  0.25811893     0.08940
H99         H  0.24578141  0.21997547  0.29239381     0.06470
H100        H  0.17762776  0.30179846  0.25010164     0.06320
O101        O  0.21212277  0.54637493  0.50049660    -0.72720
O102        O  0.21221477  0.45480963  0.49832869    -0.73700
O103        O  0.21253157  0.50017596  0.07393564    -0.62320
O104        O  0.21249371  0.50072429  0.42495738    -0.70730
O105        O  0.03695805  0.50062771  0.41915894    -0.70280
O106        O  0.03699796  0.50020441  0.06780091    -0.61530
O107        O  0.03648256  0.45417800  0.49249768    -0.74040
O108        O  0.03638658  0.54689563  0.49452806    -0.72820
Cu109      Cu  0.20979767  0.50055336  0.49965822     1.04560
Cu110      Cu  0.03936916  0.50051001  0.49330399     1.04330
C111        C  0.24892195  0.56124764  0.49724769     0.93480
C112        C  0.24899870  0.43989797  0.49549422     0.92620
C113        C  0.24982939  0.50003046  0.09426889     0.84770
C114        C  0.24979909  0.50052893  0.39863582     0.91040
O115        O  0.21291963  0.54590615  0.24893516    -0.72720
O116        O  0.21354558  0.45346798  0.24993786    -0.73700
O117        O  0.21285170  0.50033183  0.32371859    -0.62320
O118        O  0.21285300  0.49917852  0.17506125    -0.70730
O119        O  0.03731761  0.50013055  0.16893866    -0.70280
O120        O  0.03732083  0.49955982  0.31792346    -0.61530
O121        O  0.03792760  0.45364819  0.24218976    -0.74040
O122        O  0.03732802  0.54587810  0.24480602    -0.72820
Cu123      Cu  0.21043020  0.49969104  0.24955595     1.04560
Cu124      Cu  0.04008453  0.49979458  0.24319012     1.04330
C125        C  0.25014137  0.56041061  0.24762952     0.93480
C126        C  0.25087276  0.43900471  0.24601439     0.92620
C127        C  0.25001021  0.50011119  0.34424224     0.84770
C128        C  0.25001922  0.49973744  0.14860274     0.91040
C129        C  0.02121468  0.35425549  0.21528336    -0.05550
C130        C  0.24705903  0.34038816  0.25583661     0.00370
C131        C  0.22488668  0.35910775  0.29348630    -0.08200
C132        C  0.22669980  0.39121016  0.28824710    -0.05570
C133        C  0.25089063  0.40505862  0.24785133     0.00360
C134        C  0.02377898  0.38646278  0.21071456    -0.08110
C135        C  0.05024013  0.40048614  0.16621679     0.62270
H136        H  0.03834964  0.33955515  0.18736151     0.12970
H137        H  0.20950594  0.40589776  0.31616557     0.12980
C138        C  0.20004669  0.34556714  0.33961824     0.62510
F139        F  0.06467760  0.37837738  0.13137468    -0.22660
F140        F  0.08752436  0.41548160  0.18190647    -0.19990
F141        F  0.02383762  0.42125383  0.14298006    -0.19670
F142        F  0.22588041  0.32330614  0.36017608    -0.19720
F143        F  0.16017642  0.33263279  0.32708942    -0.20040
F144        F  0.19013643  0.36777487  0.37592163    -0.22720
C145        C  0.21941755  0.35656333  0.02437764    -0.05550
C146        C  0.25086468  0.34082393  0.49218461     0.00370
C147        C  0.03073954  0.35798578  0.45960690    -0.08200
C148        C  0.03006958  0.39025067  0.46347987    -0.05570
C149        C  0.24818713  0.40587285  0.49521852     0.00360
C150        C  0.21657532  0.38873938  0.02562567    -0.08110
C151        C  0.18032139  0.40399432  0.06004066     0.62270
H152        H  0.19702373  0.34330022  0.04927040     0.12970
H153        H  0.05365409  0.40349473  0.43982085     0.12980
C154        C  0.06302455  0.34392078  0.41948195     0.62510
F155        F  0.15788883  0.38301570  0.09121442    -0.22660
F156        F  0.14904445  0.41774376  0.03195882    -0.19990
F157        F  0.19899611  0.42588964  0.08976431    -0.19670
F158        F  0.05363952  0.31350261  0.40938077    -0.19720
F159        F  0.10624706  0.34611432  0.43424644    -0.20040
F160        F  0.06058258  0.35989742  0.37543207    -0.22720
C161        C  0.97780182  0.61035856  0.21388644    -0.05550
C162        C  0.24992791  0.59430089  0.24995193     0.00370
C163        C  0.26989066  0.61068445  0.28829090    -0.08200
C164        C  0.26518392  0.64277448  0.29039625    -0.05570
C165        C  0.24288142  0.65894333  0.25457564     0.00360
C166        C  0.97490329  0.64268529  0.21465984    -0.08110
C167        C  0.95430957  0.65915645  0.17219780     0.62270
H168        H  0.96318267  0.59729763  0.18465384     0.12970
H169        H  0.27940198  0.65572227  0.32002299     0.12980
C170        C  0.29583713  0.59446548  0.32697900     0.62510
F171        F  0.94773190  0.63937811  0.13277383    -0.22660
F172        F  0.98237027  0.68249104  0.15445244    -0.19990
F173        F  0.16322265  0.67146332  0.18846321    -0.19670
F174        F  0.08445833  0.58167393  0.30421034    -0.19720
F175        F  0.26996475  0.57149026  0.34949033    -0.20040
F176        F  0.30814700  0.61443890  0.36395119    -0.22720
C177        C  0.22161906  0.64429066  0.46810443    -0.05550
C178        C  0.25288841  0.66034055  0.99507946     0.00370
C179        C  0.03108361  0.64346606  0.02538690    -0.08200
C180        C  0.02993968  0.61114532  0.02314486    -0.05570
C181        C  0.24826332  0.59530592  0.49662801     0.00360
C182        C  0.21727352  0.61220767  0.47004632    -0.08110
C183        C  0.17975824  0.59687636  0.44353380     0.62270
H184        H  0.20026241  0.65722388  0.44503093     0.12970
H185        H  0.05275937  0.59808044  0.04440857     0.12980
C186        C  0.06148603  0.65796283  0.06194340     0.62510
F187        F  0.15710667  0.61753520  0.41552903    -0.22660
F188        F  0.14890699  0.58429809  0.47839597    -0.19990
F189        F  0.94683362  0.57400457  0.41167495    -0.19670
F190        F  0.30082898  0.68831626  0.07272168    -0.19720
F191        F  0.10553679  0.65609753  0.04261609    -0.20040
F192        F  0.05747928  0.64220756  0.10659281    -0.22720
C193        C  0.12023177  0.10880650  0.29431289    -0.05550
C194        C  0.12558782  0.09435534  0.24760199     0.00370
C195        C  0.13025340  0.11215635  0.20378361    -0.08200
C196        C  0.12899017  0.14445645  0.20820013    -0.05570
C197        C  0.12357110  0.15892044  0.25503557     0.00360
C198        C  0.11951357  0.14100984  0.29887177    -0.08110
C199        C  0.11525867  0.15593660  0.35021420     0.62270
H200        H  0.11709170  0.09456441  0.32725380     0.12970
H201        H  0.13215366  0.15868215  0.17525430     0.12980
C202        C  0.13595869  0.09691349  0.15285750     0.62510
F203        F  0.11057822  0.13426232  0.38755677    -0.22660
F204        F  0.07801937  0.17484160  0.35473315    -0.19990
F205        F  0.15316680  0.17319154  0.35725087    -0.19670
F206        F  0.09826298  0.07967547  0.14474174    -0.19720
F207        F  0.17306180  0.07785686  0.15021026    -0.20040
F208        F  0.14207413  0.11836132  0.11535149    -0.22720
C209        C  0.08923652  0.89189911  0.27801298    -0.05550
C210        C  0.12552931  0.90498972  0.24967520     0.00370
C211        C  0.15838352  0.88538342  0.22549356    -0.08200
C212        C  0.15237679  0.85334166  0.22918084    -0.05570
C213        C  0.11671533  0.84018912  0.25884487     0.00360
C214        C  0.08489795  0.86002011  0.28476303    -0.08110
C215        C  0.04619240  0.84876694  0.31992762     0.62270
H216        H  0.06434585  0.90706414  0.29627807     0.12970
H217        H  0.17628489  0.83814917  0.20942588     0.12980
C218        C  0.19975841  0.89782480  0.19616713     0.62510
F219        F  0.03231792  0.87141166  0.35411139    -0.22660
F220        F  0.05830307  0.82361769  0.34701843    -0.19990
F221        F  0.01018102  0.84124246  0.29279551    -0.19670
F222        F  0.22703148  0.91251326  0.22828884    -0.19720
F223        F  0.18739110  0.91830012  0.16056965    -0.20040
F224        F  0.22473843  0.87468024  0.17188101    -0.22720
C225        C  0.16089311  0.14474821  0.47765150    -0.05550
C226        C  0.12545700  0.15951782  0.00566353     0.00370
C227        C  0.09150041  0.14113894  0.03071201    -0.08200
C228        C  0.09317625  0.10910872  0.02394497    -0.05570
C229        C  0.12948966  0.09437640  0.99781991     0.00360
C230        C  0.16450397  0.11251830  0.47462575    -0.08110
C231        C  0.20525197  0.09834082  0.44604059     0.62270
H232        H  0.18616364  0.15872755  0.45796960     0.12970
H233        H  0.06665357  0.09513119  0.04153668     0.12980
C234        C  0.05441688  0.15393430  0.06687618     0.62510
F235        F  0.23223200  0.12030910  0.42196173    -0.22660
F236        F  0.19170738  0.07800750  0.41029102    -0.19990
F237        F  0.23104671  0.08304064  0.97868983    -0.19670
F238        F  0.01801012  0.16210966  0.54101201    -0.19720
F239        F  0.06905182  0.17899832  0.09314739    -0.20040
F240        F  0.04011881  0.13215154  0.10179493    -0.22720
C241        C  0.14583174  0.89154441  0.44907684    -0.05550
C242        C  0.12526435  0.90513797  0.49225404     0.00370
C243        C  0.10695921  0.88642914  0.03151598    -0.08200
C244        C  0.10976896  0.85425657  0.02588120    -0.05570
C245        C  0.13046064  0.84071484  0.48261310     0.00360
C246        C  0.14854273  0.85949446  0.44330308    -0.08110
C247        C  0.17022285  0.84582961  0.39524851     0.62270
H248        H  0.15981770  0.90637304  0.41974836     0.12970
H249        H  0.09589684  0.83939186  0.05519854     0.12980
C250        C  0.08563886  0.90045065  0.07938755     0.62510
F251        F  0.17877318  0.86799686  0.35913889    -0.22660
F252        F  0.14228136  0.82408349  0.37632956    -0.19990
F253        F  0.21039998  0.83207139  0.40438342    -0.19670
F254        F  0.04729503  0.91633024  0.06947324    -0.19720
F255        F  0.11539984  0.92049298  0.09963381    -0.20040
F256        F  0.07393223  0.87827314  0.11462219    -0.22720
O257        O  0.08837019  0.95373149  0.99924530    -0.72720
O258        O  0.09135827  0.04605784  0.99918795    -0.73700
O259        O  0.08951591  0.99979449  0.92483549    -0.62320
O260        O  0.08965801  0.00016434  0.57356885    -0.70730
O261        O  0.16409852  0.99870391  0.56754101    -0.70280
O262        O  0.16398503  0.99953243  0.91866321    -0.61530
O263        O  0.16550401  0.04503953  0.49413865    -0.74040
O264        O  0.16280842  0.95310213  0.49169287    -0.72820
Cu265      Cu  0.08710079  0.99996142  0.99944472     1.04560
Cu266      Cu  0.16668448  0.99904557  0.49284593     1.04330
C267        C  0.12533503  0.93890967  0.99517330     0.93480
C268        C  0.12894822  0.06023947  0.49651868     0.92620
C269        C  0.12670051  0.99982335  0.89834299     0.84770
C270        C  0.12686562  0.99943865  0.59396459     0.91040
O271        O  0.08969638  0.95393559  0.74903090    -0.72720
O272        O  0.08890030  0.04600780  0.74938270    -0.73700
O273        O  0.08949944  0.99972723  0.67467122    -0.62320
O274        O  0.08934958  0.00009780  0.82358508    -0.70730
O275        O  0.16382118  0.00030596  0.81756059    -0.70280
O276        O  0.16397104  0.99944702  0.66879939    -0.61530
O277        O  0.16340707  0.04618484  0.74300465    -0.74040
O278        O  0.16389164  0.95367430  0.74358543    -0.72820
Cu279      Cu  0.08677459  0.99993945  0.74931051     1.04560
Cu280      Cu  0.16639772  0.99992787  0.74297411     1.04330
C281        C  0.12671910  0.93912581  0.74669120     0.93480
C282        C  0.12602980  0.06055799  0.74617903     0.92620
C283        C  0.12677901  0.99951420  0.64832611     0.84770
C284        C  0.12660556  0.00012277  0.84398455     0.91040
C285        C  0.12641398  0.19391600  0.50931969     0.03360
C286        C  0.08747715  0.21130774  0.50537012    -0.12790
C287        C  0.08629379  0.24284706  0.51736202     0.00860
C288        C  0.12669931  0.25755364  0.52673922    -0.11320
C289        C  0.16786762  0.24180223  0.52083014     0.03350
C290        C  0.16688630  0.20958167  0.51506774    -0.10740
H291        H  0.05799710  0.20004197  0.49319924     0.08860
H292        H  0.12634508  0.28143696  0.53791252     0.06470
H293        H  0.19753151  0.19648994  0.51382368     0.06320
C294        C  0.12314145  0.19286825  0.75783870     0.03360
C295        C  0.08253464  0.20896415  0.76079534    -0.12790
C296        C  0.08123191  0.24079355  0.77159615     0.00860
C297        C  0.12190408  0.25573215  0.77932985    -0.11320
C298        C  0.16338813  0.24063135  0.77049117     0.03350
C299        C  0.16338989  0.20888908  0.75987883    -0.10740
H300        H  0.05237158  0.19619372  0.75476817     0.08940
H301        H  0.12140271  0.27925354  0.79227652     0.06470
H302        H  0.19434816  0.19618272  0.75331793     0.06320
C303        C  0.13101100  0.80676511  0.97823317     0.03360
C304        C  0.09106124  0.79068081  0.47333757    -0.12790
C305        C  0.09133708  0.75867431  0.46397871     0.00860
C306        C  0.13319101  0.74364224  0.45861384    -0.11320
C307        C  0.17309268  0.75904301  0.46838017     0.03350
C308        C  0.17136948  0.79073657  0.47853964    -0.10740
H309        H  0.06008764  0.80351739  0.47771819     0.08940
H310        H  0.13503594  0.71977777  0.44740012     0.06470
H311        H  0.20124246  0.80318501  0.48708010     0.06320
C312        C  0.11616507  0.80599405  0.76455399     0.03360
C313        C  0.07683857  0.78899203  0.76056688    -0.12790
C314        C  0.07484632  0.75779083  0.77363974     0.00860
C315        C  0.11436397  0.74298696  0.78580287    -0.11320
C316        C  0.15606155  0.75813948  0.78129525     0.03350
C317        C  0.15587788  0.79015798  0.77296780    -0.10740
H318        H  0.04767263  0.80021113  0.74768025     0.08940
H319        H  0.11236662  0.71949082  0.79827244     0.06470
H320        H  0.18655125  0.80319212  0.77192049     0.06320
C321        C  0.25544987  0.69432658  0.48758800     0.03360
C322        C  0.21567463  0.71130101  0.48687586    -0.12790
C323        C  0.21599606  0.74179118  0.47032690     0.00860
C324        C  0.00744204  0.75597936  0.45777601    -0.11320
C325        C  0.04818855  0.74088922  0.46469532     0.03350
C326        C  0.04655795  0.70929973  0.47665854    -0.10740
H327        H  0.18425744  0.70029823  0.49864812     0.08940
H328        H  0.00777910  0.77896503  0.44290878     0.06470
H329        H  0.07688130  0.69615402  0.47893533     0.06320
C330        C  0.24135758  0.69290581  0.75989381     0.03360
C331        C  0.20058971  0.70846306  0.76943447    -0.12790
C332        C  0.19939596  0.74034814  0.78013074     0.00860
C333        C  0.99062062  0.75544519  0.78502439    -0.11320
C334        C  0.03179349  0.74053717  0.77319244     0.03350
C335        C  0.03158881  0.70925621  0.76010107    -0.10740
H336        H  0.17021088  0.69526600  0.76838321     0.08940
H337        H  0.99118910  0.77889302  0.79826622     0.06470
H338        H  0.06270916  0.69719717  0.75044026     0.06320
C339        C  0.25252597  0.30678718  0.99777821     0.03360
C340        C  0.04284373  0.29174830  0.00538910    -0.12790
C341        C  0.04329090  0.26032365  0.51709586     0.00860
C342        C  0.25203878  0.24511321  0.52664038    -0.11320
C343        C  0.21123996  0.25925787  0.51725961     0.03350
C344        C  0.21246396  0.28993367  0.00113681    -0.10740
H345        H  0.07362787  0.30471921  0.00115684     0.08940
H346        H  0.25207423  0.22213588  0.54135869     0.06470
H347        H  0.18217266  0.30137029  0.99154345     0.06320
C348        C  0.24749362  0.30634729  0.75936236     0.03360
C349        C  0.03790653  0.29050240  0.76300331    -0.12790
C350        C  0.03817434  0.25857646  0.77228980     0.00860
C351        C  0.24667173  0.24344203  0.77971567    -0.11320
C352        C  0.20629941  0.25822839  0.77052752     0.03350
C353        C  0.20753506  0.28976181  0.75925873    -0.10740
H354        H  0.06871876  0.30343663  0.75810285     0.08940
H355        H  0.24577768  0.21998034  0.79240219     0.06470
H356        H  0.17762551  0.30179816  0.75008482     0.06320
O357        O  0.21212366  0.54633778  0.00049588    -0.72720
O358        O  0.21221636  0.45477230  0.99833091    -0.73700
O359        O  0.21253034  0.50021076  0.57393572    -0.62320
O360        O  0.21249474  0.50068839  0.92495757    -0.70730
O361        O  0.03695907  0.50059180  0.91915876    -0.70280
O362        O  0.03699670  0.50023908  0.56780101    -0.61530
O363        O  0.03648413  0.45414088  0.99249971    -0.74040
O364        O  0.03638751  0.54685852  0.99452681    -0.72820
Cu365      Cu  0.20979886  0.50051650  0.99965843     1.04560
Cu366      Cu  0.03937036  0.50047328  0.99330393     1.04330
C367        C  0.24892284  0.56121043  0.99724666     0.93480
C368        C  0.24900039  0.43986066  0.99549857     0.92620
C369        C  0.24982817  0.50006201  0.59426896     0.84770
C370        C  0.24980002  0.50049651  0.89863579     0.91040
O371        O  0.21292009  0.54590657  0.74895786    -0.72720
O372        O  0.21354428  0.45346868  0.74991583    -0.73700
O373        O  0.21285218  0.50031703  0.82371891    -0.62320
O374        O  0.21285212  0.49919428  0.67506113    -0.70730
O375        O  0.03731671  0.50014616  0.66893857    -0.70280
O376        O  0.03732128  0.49954401  0.81792281    -0.61530
O377        O  0.03792632  0.45364792  0.74216648    -0.74040
O378        O  0.03732850  0.54587824  0.74482924    -0.72820
Cu379      Cu  0.21042996  0.49969162  0.74955610     1.04560
Cu380      Cu  0.04008428  0.49979451  0.74318978     1.04330
C381        C  0.25014179  0.56041082  0.74765726     0.93480
C382        C  0.25087093  0.43900493  0.74598799     0.92620
C383        C  0.25001082  0.50009006  0.84424211     0.84770
C384        C  0.25001818  0.49975862  0.64860269     0.91040
C385        C  0.02120985  0.35425489  0.71525827    -0.05550
C386        C  0.24705640  0.34038869  0.75581431     0.00370
C387        C  0.22488598  0.35910929  0.79346389    -0.08200
C388        C  0.22669848  0.39121141  0.78822183    -0.05570
C389        C  0.25088712  0.40505883  0.74782356     0.00360
C390        C  0.02377384  0.38646216  0.71068692    -0.08110
C391        C  0.05023324  0.40048471  0.66618738     0.62270
H392        H  0.03834368  0.33955376  0.68733674     0.12970
H393        H  0.20950650  0.40589970  0.81614066     0.12980
C394        C  0.20004959  0.34556996  0.83959925     0.62510
F395        F  0.06466969  0.37837523  0.63134601    -0.22660
F396        F  0.08751790  0.41548083  0.68187456    -0.19990
F397        F  0.02382957  0.42125176  0.64295089    -0.19670
F398        F  0.22588733  0.32331182  0.86015858    -0.19720
F399        F  0.16018014  0.33263239  0.82707486    -0.20040
F400        F  0.19013794  0.36777905  0.87590009    -0.22720
C401        C  0.21941387  0.35659868  0.52435256    -0.05550
C402        C  0.25086583  0.34078603  0.99221034     0.00370
C403        C  0.03073919  0.35794526  0.95962687    -0.08200
C404        C  0.03006971  0.39021055  0.96349265    -0.05570
C405        C  0.24818897  0.40583534  0.99522997     0.00360
C406        C  0.21657103  0.38877461  0.52560712    -0.08110
C407        C  0.18031348  0.40402683  0.56002078     0.62270
H408        H  0.19701862  0.34333366  0.54924083     0.12970
H409        H  0.05365304  0.40345275  0.93982926     0.12980
C410        C  0.06302176  0.34387634  0.91950314     0.62510
F411        F  0.15787814  0.38304572  0.59118747    -0.22660
F412        F  0.14903953  0.41777834  0.53193737    -0.19990
F413        F  0.19898434  0.42591999  0.58975164    -0.19670
F414        F  0.05362862  0.31345916  0.90940346    -0.19720
F415        F  0.10624468  0.34606502  0.93426813    -0.20040
F416        F  0.06058480  0.35985261  0.87545215    -0.22720
C417        C  0.97780179  0.61035957  0.71392023    -0.05550
C418        C  0.24992767  0.59430098  0.74998474     0.00370
C419        C  0.26989062  0.61068349  0.78832456    -0.08200
C420        C  0.26518352  0.64277366  0.79043214    -0.05570
C421        C  0.24288138  0.65894339  0.75461194     0.00360
C422        C  0.97490391  0.64268618  0.71469488    -0.08110
C423        C  0.95431225  0.65915807  0.67223208     0.62270
H424        H  0.96318295  0.59729938  0.68468658     0.12970
H425        H  0.27940199  0.65572083  0.82005929     0.12980
C426        C  0.29583927  0.59446335  0.82700949     0.62510
F427        F  0.94773609  0.63938031  0.63280695    -0.22660
F428        F  0.98237390  0.68249270  0.65448873    -0.19990
F429        F  0.16322486  0.67146494  0.68849565    -0.19670
F430        F  0.08446104  0.58167445  0.80423766    -0.19720
F431        F  0.26996972  0.57148571  0.84951806    -0.20040
F432        F  0.30814818  0.61443537  0.86398406    -0.22720
C433        C  0.22162031  0.64425336  0.96810459    -0.05550
C434        C  0.25288542  0.66037818  0.49508105     0.00370
C435        C  0.03108014  0.64350400  0.52538944    -0.08200
C436        C  0.02993701  0.61118315  0.52314751    -0.05570
C437        C  0.24826439  0.59526852  0.99662718     0.00360
C438        C  0.21727336  0.61217050  0.97004767    -0.08110
C439        C  0.17975467  0.59683969  0.94353988     0.62270
H440        H  0.20026310  0.65718671  0.94503192     0.12970
H441        H  0.05275620  0.59811850  0.54441215     0.12980
C442        C  0.06148154  0.65800175  0.56194604     0.62510
F443        F  0.15710152  0.61749875  0.91553713    -0.22660
F444        F  0.14890567  0.58426262  0.97840575    -0.19990
F445        F  0.94682577  0.57396698  0.91168017    -0.19670
F446        F  0.30081836  0.68835379  0.57272858    -0.19720
F447        F  0.10553194  0.65614137  0.54261609    -0.20040
F448        F  0.05748029  0.64224427  0.60659353    -0.22720
C449        C  0.12023435  0.10880834  0.79433744    -0.05550
C450        C  0.12558440  0.09435600  0.74762709     0.00370
C451        C  0.13024032  0.11215597  0.70380693    -0.08200
C452        C  0.12897776  0.14445606  0.70822136    -0.05570
C453        C  0.12356610  0.15892127  0.75505605     0.00360
C454        C  0.11951391  0.14101192  0.79889378    -0.08110
C455        C  0.11526044  0.15594036  0.85023482     0.62270
H456        H  0.11709965  0.09456712  0.82727954     0.12970
H457        H  0.13213543  0.15868088  0.67527429     0.12980
C458        C  0.13593416  0.09691205  0.65288086     0.62510
F459        F  0.11058046  0.13426723  0.88757908    -0.22660
F460        F  0.07802122  0.17484549  0.85475311    -0.19990
F461        F  0.15316884  0.17319557  0.85726894    -0.19670
F462        F  0.09823622  0.07967348  0.64477700    -0.19720
F463        F  0.17303790  0.07785588  0.65022393    -0.20040
F464        F  0.14203995  0.11835908  0.61537247    -0.22720
C465        C  0.08923510  0.89189969  0.77798520    -0.05550
C466        C  0.12552821  0.90498967  0.74964713     0.00370
C467        C  0.15838353  0.88538279  0.72546898    -0.08200
C468        C  0.15237834  0.85334096  0.72916134    -0.05570
C469        C  0.11671701  0.84018924  0.75882688     0.00360
C470        C  0.08489770  0.86002114  0.78474033    -0.08110
C471        C  0.04619151  0.84876955  0.81990584     0.62270
H472        H  0.06434357  0.90706510  0.79624772     0.12970
H473        H  0.17628792  0.83814790  0.70941000     0.12980
C474        C  0.19975827  0.89782368  0.69614183     0.62510
F475        F  0.03231205  0.87141690  0.85408276    -0.22660
F476        F  0.05830382  0.82362424  0.84700466    -0.19990
F477        F  0.01018252  0.84123994  0.79277341    -0.19670
F478        F  0.22703122  0.91251313  0.72826252    -0.19720
F479        F  0.18739076  0.91829803  0.66054308    -0.20040
F480        F  0.22473833  0.87467859  0.67185721    -0.22720
C481        C  0.16089582  0.14471249  0.97766867    -0.05550
C482        C  0.12545716  0.15955501  0.50564861     0.00370
C483        C  0.09150419  0.14117761  0.53070632    -0.08200
C484        C  0.09317892  0.10914693  0.52394409    -0.05570
C485        C  0.12948949  0.09441316  0.49781599     0.00360
C486        C  0.16450626  0.11248275  0.97463681    -0.08110
C487        C  0.20525625  0.09830679  0.94605310     0.62270
H488        H  0.18616852  0.15869284  0.95799250     0.12970
H489        H  0.06665820  0.09517034  0.54154198     0.12980
C490        C  0.05442522  0.15397567  0.56687364     0.62510
F491        F  0.23223777  0.12027641  0.92197983    -0.22660
F492        F  0.19171449  0.07797555  0.91029899    -0.19990
F493        F  0.23104485  0.08307660  0.47867717    -0.19670
F494        F  0.01800501  0.16206921  0.04101001    -0.19720
F495        F  0.06906464  0.17904118  0.59313803    -0.20040
F496        F  0.04013060  0.13219524  0.60179783    -0.22720
C497        C  0.14583348  0.89150699  0.94907357    -0.05550
C498        C  0.12526913  0.90510073  0.99225238     0.00370
C499        C  0.10695143  0.88646654  0.53151617    -0.08200
C500        C  0.10976183  0.85429404  0.52588167    -0.05570
C501        C  0.13046460  0.84067730  0.98261108     0.00360
C502        C  0.14854404  0.85945692  0.94329974    -0.08110
C503        C  0.17022054  0.84579177  0.89524361     0.62270
H504        H  0.15981738  0.90633553  0.91974390     0.12970
H505        H  0.09588754  0.83942932  0.55519787     0.12980
C506        C  0.08562683  0.90048815  0.57938566     0.62510
F507        F  0.17876638  0.86795863  0.85913243    -0.22660
F508        F  0.14227792  0.82404471  0.87632903    -0.19990
F509        F  0.21039957  0.83203458  0.90437425    -0.19670
F510        F  0.04728322  0.91636667  0.56946710    -0.19720
F511        F  0.11538493  0.92053150  0.59963453    -0.20040
F512        F  0.07391863  0.87831077  0.61461996    -0.22720
O513        O  0.33836629  0.95376873  0.49924644    -0.72720
O514        O  0.34135673  0.04609494  0.49918803    -0.73700
O515        O  0.33951388  0.99982960  0.42483585    -0.62320
O516        O  0.33966079  0.00012873  0.07356806    -0.70730
O517        O  0.41410130  0.99866892  0.06754058    -0.70280
O518        O  0.41398301  0.99956641  0.41866423    -0.61530
O519        O  0.41550547  0.04500336  0.99413903    -0.74040
O520        O  0.41281220  0.95306573  0.99169097    -0.72820
Cu521      Cu  0.33709816  0.99999826  0.49944534     1.04560
Cu522      Cu  0.41668702  0.99900968  0.99284508     1.04330
C523        C  0.37533082  0.93894663  0.49517492     0.93480
C524        C  0.37894931  0.06020283  0.99651961     0.92620
C525        C  0.37669869  0.99985455  0.39834358     0.84770
C526        C  0.37686840  0.99940660  0.09396407     0.91040
O527        O  0.33969629  0.95393519  0.24905253    -0.72720
O528        O  0.33890247  0.04600757  0.24936045    -0.73700
O529        O  0.33950171  0.99971175  0.17467045    -0.62320
O530        O  0.33934885  0.00011269  0.32358466    -0.70730
O531        O  0.41382047  0.00032040  0.31756137    -0.70280
O532        O  0.41397329  0.99943147  0.16879976    -0.61530
O533        O  0.41340924  0.04618390  0.24298365    -0.74040
O534        O  0.41389157  0.95367429  0.24360804    -0.72820
Cu535      Cu  0.33677544  0.99993918  0.24930992     1.04560
Cu536      Cu  0.41639858  0.99992731  0.24297482     1.04330
C537        C  0.37671918  0.93912570  0.24671697     0.93480
C538        C  0.37603232  0.06055738  0.24615384     0.92620
C539        C  0.37678152  0.99949295  0.14832581     0.84770
C540        C  0.37660446  0.00014314  0.34398485     0.91040
C541        C  0.37641395  0.19387867  0.00934104     0.03360
C542        C  0.33747765  0.21127099  0.00539172    -0.12790
C543        C  0.33629373  0.24280937  0.01738942     0.00860
C544        C  0.37669869  0.25751544  0.02677044    -0.11320
C545        C  0.41786719  0.24176426  0.02086073     0.03350
C546        C  0.41688595  0.20954389  0.01509428    -0.10740
H547        H  0.30799809  0.20000651  0.99321702     0.08860
H548        H  0.37634376  0.28139831  0.03794659     0.06470
H549        H  0.44753108  0.19645220  0.01385048     0.06320
C550        C  0.37314605  0.19286741  0.25782155     0.03360
C551        C  0.33253883  0.20896295  0.26078284    -0.12790
C552        C  0.33123535  0.24079117  0.27159320     0.00860
C553        C  0.37190716  0.25572894  0.27933151    -0.11320
C554        C  0.41339157  0.24062922  0.27048835     0.03350
C555        C  0.41339412  0.20888815  0.25986609    -0.10740
H556        H  0.30237594  0.19619301  0.25475293     0.08940
H557        H  0.37140523  0.27924880  0.29228571     0.06470
H558        H  0.44435266  0.19618246  0.25330229     0.06320
C559        C  0.38100700  0.80680276  0.47823483     0.03360
C560        C  0.34106520  0.79064299  0.97333573    -0.12790
C561        C  0.34134119  0.75863648  0.96397640     0.00860
C562        C  0.38319517  0.74360450  0.95861173    -0.11320
C563        C  0.42309681  0.75900542  0.96837779     0.03350
C564        C  0.42137363  0.79069908  0.97853656    -0.10740
H565        H  0.31009152  0.80347946  0.97771667     0.08940
H566        H  0.38504021  0.71973998  0.94739828     0.06470
H567        H  0.45124673  0.80314774  0.98707592     0.06320
C568        C  0.36616130  0.80599360  0.26456456     0.03360
C569        C  0.32683451  0.78899280  0.26057132    -0.12790
C570        C  0.32484282  0.75778919  0.27362988     0.00860
C571        C  0.36436069  0.74298299  0.28578670    -0.11320
C572        C  0.40605798  0.75813614  0.28128669     0.03350
C573        C  0.40587375  0.79015600  0.27297357    -0.10740
H574        H  0.29766835  0.80021449  0.24769006     0.08940
H575        H  0.36236365  0.71948470  0.29824558     0.06470
H576        H  0.43654682  0.80319027  0.27193193     0.06320
C577        C  0.50545342  0.69428888  0.98758663     0.03360
C578        C  0.46567844  0.71126361  0.98687482    -0.12790
C579        C  0.46600013  0.74175357  0.97032505     0.00860
C580        C  0.25744630  0.75594157  0.95777272    -0.11320
C581        C  0.29819269  0.74085131  0.96469216     0.03350
C582        C  0.29656183  0.70926170  0.97665473    -0.10740
H583        H  0.43426116  0.70026115  0.99864778     0.08940
H584        H  0.25778359  0.77892723  0.94290540     0.06470
H585        H  0.32688505  0.69611572  0.97893109     0.06320
C586        C  0.49135590  0.69290567  0.25985878     0.03360
C587        C  0.45058760  0.70846139  0.26940575    -0.12790
C588        C  0.44939298  0.74034503  0.28011371     0.00860
C589        C  0.24061727  0.75544154  0.28501293    -0.11320
C590        C  0.28179047  0.74053557  0.27317413     0.03350
C591        C  0.28158660  0.70925654  0.26007028    -0.10740
H592        H  0.42020926  0.69526406  0.26835212     0.08940
H593        H  0.24118540  0.77888723  0.29826480     0.06470
H594        H  0.31270727  0.69719882  0.25040529     0.06320
C595        C  0.50252614  0.30682487  0.49774742     0.03360
C596        C  0.29284376  0.29178631  0.50536015    -0.12790
C597        C  0.29329076  0.26028576  0.01712504     0.00860
C598        C  0.50203880  0.24507509  0.02667000    -0.11320
C599        C  0.46123953  0.25922018  0.01729189     0.03350
C600        C  0.46246467  0.28997089  0.50110276    -0.10740
H601        H  0.32362751  0.30475776  0.50113000     0.08940
H602        H  0.50207489  0.22209716  0.04138601     0.06470
H603        H  0.43217368  0.30140717  0.49150749     0.06320
C604        C  0.49749584  0.30634655  0.25938069     0.03360
C605        C  0.28790894  0.29050103  0.26301610    -0.12790
C606        C  0.28817734  0.25857401  0.27229302     0.00860
C607        C  0.49667497  0.24343875  0.27971487    -0.11320
C608        C  0.45630239  0.25822633  0.27053136     0.03350
C609        C  0.45753744  0.28976119  0.25927272    -0.10740
H610        H  0.31872106  0.30343560  0.25811845     0.08940
H611        H  0.49578136  0.21997549  0.29239387     0.06470
H612        H  0.42762783  0.30179853  0.25010172     0.06320
O613        O  0.46212282  0.54637494  0.50049714    -0.72720
O614        O  0.46221487  0.45480964  0.49832918    -0.73700
O615        O  0.46253165  0.50017595  0.07393616    -0.62320
O616        O  0.46249380  0.50072432  0.42495790    -0.70730
O617        O  0.28695801  0.50062766  0.41915842    -0.70280
O618        O  0.28699791  0.50020448  0.06780039    -0.61530
O619        O  0.28648252  0.45417801  0.49249727    -0.74040
O620        O  0.28638652  0.54689564  0.49452743    -0.72820
Cu621      Cu  0.45979775  0.50055337  0.49965874     1.04560
Cu622      Cu  0.28936911  0.50051003  0.49330347     1.04330
C623        C  0.49892199  0.56124766  0.49724826     0.93480
C624        C  0.49899881  0.43989799  0.49549469     0.92620
C625        C  0.49982947  0.50003045  0.09426941     0.84770
C626        C  0.49979918  0.50052898  0.39863634     0.91040
O627        O  0.46291968  0.54590616  0.24893564    -0.72720
O628        O  0.46354569  0.45346800  0.24993841    -0.73700
O629        O  0.46285179  0.50033186  0.32371911    -0.62320
O630        O  0.46285308  0.49917852  0.17506177    -0.70730
O631        O  0.28731758  0.50013063  0.16893814    -0.70280
O632        O  0.28732079  0.49955977  0.31792294    -0.61530
O633        O  0.28792754  0.45364820  0.24218915    -0.74040
O634        O  0.28732802  0.54587812  0.24480562    -0.72820
Cu635      Cu  0.46043028  0.49969105  0.24955647     1.04560
Cu636      Cu  0.29008449  0.49979460  0.24318960     1.04330
C637        C  0.50014141  0.56041064  0.24762996     0.93480
C638        C  0.50087288  0.43900474  0.24601493     0.92620
C639        C  0.50001029  0.50011124  0.34424275     0.84770
C640        C  0.50001930  0.49973744  0.14860326     0.91040
C641        C  0.27121464  0.35425550  0.21528280    -0.05550
C642        C  0.49705911  0.34038819  0.25583691     0.00370
C643        C  0.47488676  0.35910775  0.29348665    -0.08200
C644        C  0.47669991  0.39121017  0.28824754    -0.05570
C645        C  0.50089076  0.40505865  0.24785182     0.00360
C646        C  0.27377891  0.38646278  0.21071396    -0.08110
C647        C  0.30024006  0.40048614  0.16621617     0.62270
H648        H  0.28834959  0.33955515  0.18736096     0.12970
H649        H  0.45950605  0.40589774  0.31616604     0.12980
C650        C  0.45004674  0.34556709  0.33961854     0.62510
F651        F  0.31467752  0.37837736  0.13137407    -0.22660
F652        F  0.33752430  0.41548160  0.18190584    -0.19990
F653        F  0.27383755  0.42125383  0.14297944    -0.19670
F654        F  0.47588044  0.32330607  0.36017634    -0.19720
F655        F  0.41017648  0.33263276  0.32708965    -0.20040
F656        F  0.44013645  0.36777479  0.37592198    -0.22720
C657        C  0.46941764  0.35656333  0.02437794    -0.05550
C658        C  0.50086473  0.34082395  0.49218485     0.00370
C659        C  0.28073951  0.35798575  0.45960682    -0.08200
C660        C  0.28006955  0.39025065  0.46347967    -0.05570
C661        C  0.49818724  0.40587287  0.49521893     0.00360
C662        C  0.46657544  0.38873938  0.02562606    -0.08110
C663        C  0.43032155  0.40399430  0.06004113     0.62270
H664        H  0.44702381  0.34330021  0.04927067     0.12970
H665        H  0.30365406  0.40349469  0.43982061     0.12980
C666        C  0.31302452  0.34392070  0.41948191     0.62510
F667        F  0.40788903  0.38301566  0.09121489    -0.22660
F668        F  0.39904458  0.41774378  0.03195938    -0.19990
F669        F  0.44899632  0.42588960  0.08976480    -0.19670
F670        F  0.30363943  0.31350253  0.40938078    -0.19720
F671        F  0.35624702  0.34611421  0.43424642    -0.20040
F672        F  0.31058260  0.35989732  0.37543199    -0.22720
C673        C  0.22780181  0.61035868  0.21388641    -0.05550
C674        C  0.49992792  0.59430092  0.24995227     0.00370
C675        C  0.51989099  0.61068455  0.28829094    -0.08200
C676        C  0.51518419  0.64277458  0.29039621    -0.05570
C677        C  0.49288133  0.65894335  0.25457580     0.00360
C678        C  0.22490328  0.64268541  0.21466000    -0.08110
C679        C  0.20430960  0.65915667  0.17219804     0.62270
H680        H  0.21318264  0.59729782  0.18465376     0.12970
H681        H  0.52940249  0.65572242  0.32002273     0.12980
C682        C  0.54583785  0.59446568  0.32697880     0.62510
F683        F  0.19773186  0.63937841  0.13277399    -0.22660
F684        F  0.23237038  0.68249125  0.15445277    -0.19990
F685        F  0.41322178  0.67146302  0.18846418    -0.19670
F686        F  0.33445851  0.58167387  0.30420987    -0.19720
F687        F  0.51996572  0.57149044  0.34949045    -0.20040
F688        F  0.55814797  0.61443916  0.36395077    -0.22720
C689        C  0.47161915  0.64429065  0.46810481    -0.05550
C690        C  0.50288826  0.66034057  0.99508012     0.00370
C691        C  0.28108348  0.64346609  0.02538612    -0.08200
C692        C  0.27993956  0.61114535  0.02314416    -0.05570
C693        C  0.49826333  0.59530593  0.49662858     0.00360
C694        C  0.46727370  0.61220765  0.47004661    -0.08110
C695        C  0.42975872  0.59687628  0.44353366     0.62270
H696        H  0.45026263  0.65722385  0.44503113     0.12970
H697        H  0.30275919  0.59808049  0.04440798     0.12980
C698        C  0.31148576  0.65796290  0.06194272     0.62510
F699        F  0.40710737  0.61753509  0.41552861    -0.22660
F700        F  0.39890721  0.58429798  0.47839553    -0.19990
F701        F  0.19683371  0.57400447  0.41167412    -0.19670
F702        F  0.55082832  0.68831633  0.07272268    -0.19720
F703        F  0.35553657  0.65609765  0.04261556    -0.20040
F704        F  0.30747894  0.64220763  0.10659214    -0.22720
C705        C  0.37023178  0.10880655  0.29431280    -0.05550
C706        C  0.37558784  0.09435537  0.24760191     0.00370
C707        C  0.38025346  0.11215637  0.20378352    -0.08200
C708        C  0.37899023  0.14445647  0.20820001    -0.05570
C709        C  0.37357114  0.15892048  0.25503544     0.00360
C710        C  0.36951359  0.14100989  0.29887165    -0.08110
C711        C  0.36525868  0.15593667  0.35021407     0.62270
H712        H  0.36709169  0.09456447  0.32725373     0.12970
H713        H  0.38215372  0.15868216  0.17525417     0.12980
C714        C  0.38595878  0.09691349  0.15285743     0.62510
F715        F  0.36057821  0.13426240  0.38755666    -0.22660
F716        F  0.32801940  0.17484168  0.35473299    -0.19990
F717        F  0.40316682  0.17319160  0.35725074    -0.19670
F718        F  0.34826308  0.07967547  0.14474164    -0.19720
F719        F  0.42306188  0.07785686  0.15021024    -0.20040
F720        F  0.39207426  0.11836131  0.11535140    -0.22720
C721        C  0.33923650  0.89189916  0.27801319    -0.05550
C722        C  0.37552925  0.90498975  0.24967530     0.00370
C723        C  0.40838340  0.88538343  0.22549363    -0.08200
C724        C  0.40237666  0.85334168  0.22918098    -0.05570
C725        C  0.36671525  0.84018916  0.25884511     0.00360
C726        C  0.33489793  0.86002017  0.28476331    -0.08110
C727        C  0.29619245  0.84876703  0.31992803     0.62270
H728        H  0.31434587  0.90706421  0.29627830     0.12970
H729        H  0.42628473  0.83814917  0.20942599     0.12980
C730        C  0.44975825  0.89782479  0.19616709     0.62510
F731        F  0.28231804  0.87141178  0.35411177    -0.22660
F732        F  0.30830318  0.82361781  0.34701886    -0.19990
F733        F  0.26018101  0.84124252  0.29279604    -0.19670
F734        F  0.47703139  0.91251326  0.22828872    -0.19720
F735        F  0.43739088  0.91830009  0.16056962    -0.20040
F736        F  0.47473822  0.87468021  0.17188096    -0.22720
C737        C  0.41089305  0.14474822  0.47765148    -0.05550
C738        C  0.37545697  0.15951784  0.00566356     0.00370
C739        C  0.34150039  0.14113895  0.03071207    -0.08200
C740        C  0.34317623  0.10910873  0.02394501    -0.05570
C741        C  0.37948962  0.09437641  0.99781992     0.00360
C742        C  0.41450391  0.11251832  0.47462572    -0.08110
C743        C  0.45525188  0.09834084  0.44604052     0.62270
H744        H  0.43616357  0.15872757  0.45796956     0.12970
H745        H  0.31665355  0.09513120  0.04153674     0.12980
C746        C  0.30441689  0.15393431  0.06687627     0.62510
F747        F  0.48223190  0.12030912  0.42196163    -0.22660
F748        F  0.44170727  0.07800751  0.41029097    -0.19990
F749        F  0.48104666  0.08304066  0.97868974    -0.19670
F750        F  0.26801011  0.16210968  0.54101214    -0.19720
F751        F  0.31905185  0.17899833  0.09314748    -0.20040
F752        F  0.29011884  0.13215155  0.10179502    -0.22720
C753        C  0.39583183  0.89154443  0.44907678    -0.05550
C754        C  0.37526433  0.90513797  0.49225394     0.00370
C755        C  0.35695908  0.88642912  0.03151580    -0.08200
C756        C  0.35976881  0.85425655  0.02588097    -0.05570
C757        C  0.38046060  0.84071485  0.48261291     0.00360
C758        C  0.39854283  0.85949449  0.44330299    -0.08110
C759        C  0.42022310  0.84582966  0.39524848     0.62270
H760        H  0.40981788  0.90637308  0.41974837     0.12970
H761        H  0.34589660  0.83939182  0.05519824     0.12980
C762        C  0.33563864  0.90045060  0.07938734     0.62510
F763        F  0.42877356  0.86799692  0.35913892    -0.22660
F764        F  0.39228167  0.82408355  0.37632939    -0.19990
F765        F  0.46040018  0.83207142  0.40438356    -0.19670
F766        F  0.29729484  0.91633021  0.06947296    -0.19720
F767        F  0.36539958  0.92049291  0.09963372    -0.20040
F768        F  0.32393192  0.87827307  0.11462192    -0.22720
O769        O  0.33837017  0.95373150  0.99924525    -0.72720
O770        O  0.34135823  0.04605785  0.99918796    -0.73700
O771        O  0.33951588  0.99979452  0.92483548    -0.62320
O772        O  0.33965798  0.00016433  0.57356884    -0.70730
O773        O  0.41409849  0.99870392  0.56754100    -0.70280
O774        O  0.41398500  0.99953246  0.91866320    -0.61530
O775        O  0.41550398  0.04503955  0.49413865    -0.74040
O776        O  0.41280840  0.95310214  0.49169283    -0.72820
Cu777      Cu  0.33710076  0.99996143  0.99944471     1.04560
Cu778      Cu  0.41668445  0.99904559  0.49284591     1.04330
C779        C  0.37533501  0.93890967  0.99517325     0.93480
C780        C  0.37894818  0.06023949  0.49651869     0.92620
C781        C  0.37670048  0.99982339  0.89834298     0.84770
C782        C  0.37686559  0.99943864  0.59396458     0.91040
O783        O  0.33969633  0.95393562  0.74903093    -0.72720
O784        O  0.33890030  0.04600783  0.74938266    -0.73700
O785        O  0.33949941  0.99972724  0.67467121    -0.62320
O786        O  0.33934955  0.00009785  0.82358507    -0.70730
O787        O  0.41382116  0.00030599  0.81756058    -0.70280
O788        O  0.41397101  0.99944702  0.66879938    -0.61530
O789        O  0.41340707  0.04618486  0.74300462    -0.74040
O790        O  0.41389159  0.95367432  0.74358545    -0.72820
Cu791      Cu  0.33677457  0.99993949  0.74931050     1.04560
Cu792      Cu  0.41639770  0.99992789  0.74297410     1.04330
C793        C  0.37671904  0.93912583  0.74669125     0.93480
C794        C  0.37602981  0.06055802  0.74617898     0.92620
C795        C  0.37677898  0.99951420  0.64832610     0.84770
C796        C  0.37660553  0.00012281  0.84398454     0.91040
C797        C  0.37641395  0.19391601  0.50931974     0.03360
C798        C  0.33747712  0.21130776  0.50537020    -0.12790
C799        C  0.33629377  0.24284708  0.51736212     0.00860
C800        C  0.37669930  0.25755365  0.52673929    -0.11320
C801        C  0.41786761  0.24180224  0.52083018     0.03350
C802        C  0.41688629  0.20958168  0.51506777    -0.10740
H803        H  0.30799706  0.20004200  0.49319935     0.08860
H804        H  0.37634508  0.28143698  0.53791260     0.06470
H805        H  0.44753149  0.19648995  0.51382367     0.06320
C806        C  0.37314148  0.19286829  0.75783854     0.03360
C807        C  0.33253467  0.20896419  0.76079507    -0.12790
C808        C  0.33123193  0.24079360  0.77159585     0.00860
C809        C  0.37190407  0.25573220  0.77932964    -0.11320
C810        C  0.41338814  0.24063139  0.77049109     0.03350
C811        C  0.41338991  0.20888912  0.75987875    -0.10740
H812        H  0.30237162  0.19619376  0.75476785     0.08940
H813        H  0.37140267  0.27925359  0.79227629     0.06470
H814        H  0.44434818  0.19618275  0.75331793     0.06320
C815        C  0.38101097  0.80676511  0.97823293     0.03360
C816        C  0.34106124  0.79068082  0.47333706    -0.12790
C817        C  0.34133712  0.75867432  0.46397818     0.00860
C818        C  0.38319106  0.74364224  0.45861357    -0.11320
C819        C  0.42309266  0.75904301  0.46838017     0.03350
C820        C  0.42136943  0.79073657  0.47853964    -0.10740
H821        H  0.31008764  0.80351741  0.47771748     0.08940
H822        H  0.38503605  0.71977778  0.44739986     0.06470
H823        H  0.45124236  0.80318501  0.48708029     0.06320
C824        C  0.36616500  0.80599409  0.76455431     0.03360
C825        C  0.32683848  0.78899207  0.76056735    -0.12790
C826        C  0.32484627  0.75779087  0.77364025     0.00860
C827        C  0.36436395  0.74298701  0.78580329    -0.11320
C828        C  0.40606153  0.75813953  0.78129551     0.03350
C829        C  0.40587784  0.79015803  0.77296801    -0.10740
H830        H  0.29767251  0.80021115  0.74768079     0.08940
H831        H  0.36236663  0.71949088  0.79827289     0.06470
H832        H  0.43655123  0.80319217  0.77192059     0.06320
C833        C  0.50544972  0.69432659  0.48758865     0.03360
C834        C  0.46567450  0.71130101  0.48687620    -0.12790
C835        C  0.46599601  0.74179117  0.47032719     0.00860
C836        C  0.25744210  0.75597937  0.45777515    -0.11320
C837        C  0.29818859  0.74088922  0.46469456     0.03350
C838        C  0.29655796  0.70929973  0.47665771    -0.10740
H839        H  0.43425726  0.70029822  0.49864826     0.08940
H840        H  0.25777919  0.77896506  0.44290797     0.06470
H841        H  0.32688129  0.69615401  0.47893458     0.06320
C842        C  0.49135750  0.69290585  0.75989384     0.03360
C843        C  0.45058966  0.70846309  0.76943468    -0.12790
C844        C  0.44939595  0.74034819  0.78013086     0.00860
C845        C  0.24062058  0.75544519  0.78502502    -0.11320
C846        C  0.28179345  0.74053719  0.77319301     0.03350
C847        C  0.28158878  0.70925624  0.76010157    -0.10740
H848        H  0.42021082  0.69526602  0.76838368     0.08940
H849        H  0.24118905  0.77889301  0.79826688     0.06470
H850        H  0.31270915  0.69719722  0.75044071     0.06320
C851        C  0.50252599  0.30678720  0.99777836     0.03360
C852        C  0.29284372  0.29174832  0.00538919    -0.12790
C853        C  0.29329089  0.26032367  0.51709598     0.00860
C854        C  0.50203877  0.24511320  0.52664041    -0.11320
C855        C  0.46123996  0.25925788  0.51725968     0.03350
C856        C  0.46246398  0.28993370  0.00113694    -0.10740
H857        H  0.32362786  0.30471922  0.00115690     0.08940
H858        H  0.50207422  0.22213586  0.54135868     0.06470
H859        H  0.43217268  0.30137033  0.99154361     0.06320
C860        C  0.49749366  0.30634732  0.75936257     0.03360
C861        C  0.28790655  0.29050243  0.76300286    -0.12790
C862        C  0.28817436  0.25857650  0.77228943     0.00860
C863        C  0.49667171  0.24344205  0.77971576    -0.11320
C864        C  0.45629942  0.25822843  0.77052756     0.03350
C865        C  0.45753510  0.28976185  0.75925884    -0.10740
H866        H  0.31871877  0.30343666  0.75810238     0.08940
H867        H  0.49577763  0.21998035  0.79240225     0.06470
H868        H  0.42762557  0.30179823  0.75008490     0.06320
O869        O  0.46212371  0.54633779  0.00049643    -0.72720
O870        O  0.46221646  0.45477232  0.99833140    -0.73700
O871        O  0.46253042  0.50021075  0.57393624    -0.62320
O872        O  0.46249483  0.50068842  0.92495809    -0.70730
O873        O  0.28695903  0.50059175  0.91915824    -0.70280
O874        O  0.28699666  0.50023915  0.56780049    -0.61530
O875        O  0.28648409  0.45414089  0.99249930    -0.74040
O876        O  0.28638745  0.54685853  0.99452618    -0.72820
Cu877      Cu  0.45979894  0.50051651  0.99965895     1.04560
Cu878      Cu  0.28937032  0.50047329  0.99330341     1.04330
C879        C  0.49892289  0.56121045  0.99724723     0.93480
C880        C  0.49900050  0.43986068  0.99549903     0.92620
C881        C  0.49982825  0.50006201  0.59426948     0.84770
C882        C  0.49980011  0.50049656  0.89863632     0.91040
O883        O  0.46292014  0.54590658  0.74895833    -0.72720
O884        O  0.46354439  0.45346870  0.74991637    -0.73700
O885        O  0.46285227  0.50031706  0.82371943    -0.62320
O886        O  0.46285220  0.49919427  0.67506165    -0.70730
O887        O  0.28731668  0.50014623  0.66893805    -0.70280
O888        O  0.28732125  0.49954397  0.81792229    -0.61530
O889        O  0.28792627  0.45364793  0.74216587    -0.74040
O890        O  0.28732849  0.54587826  0.74482884    -0.72820
Cu891      Cu  0.46043004  0.49969163  0.74955662     1.04560
Cu892      Cu  0.29008425  0.49979453  0.74318927     1.04330
C893        C  0.50014183  0.56041084  0.74765771     0.93480
C894        C  0.50087106  0.43900496  0.74598853     0.92620
C895        C  0.50001091  0.50009011  0.84424263     0.84770
C896        C  0.50001826  0.49975862  0.64860321     0.91040
C897        C  0.27120980  0.35425490  0.71525771    -0.05550
C898        C  0.49705647  0.34038872  0.75581461     0.00370
C899        C  0.47488606  0.35910929  0.79346424    -0.08200
C900        C  0.47669859  0.39121141  0.78822227    -0.05570
C901        C  0.50088726  0.40505886  0.74782404     0.00360
C902        C  0.27377377  0.38646217  0.71068632    -0.08110
C903        C  0.30023317  0.40048471  0.66618677     0.62270
H904        H  0.28834364  0.33955376  0.68733619     0.12970
H905        H  0.45950661  0.40589969  0.81614113     0.12980
C906        C  0.45004963  0.34556991  0.83959955     0.62510
F907        F  0.31466960  0.37837522  0.63134541    -0.22660
F908        F  0.33751784  0.41548083  0.68187393    -0.19990
F909        F  0.27382950  0.42125175  0.64295027    -0.19670
F910        F  0.47588736  0.32331176  0.86015884    -0.19720
F911        F  0.41018020  0.33263236  0.82707509    -0.20040
F912        F  0.44013796  0.36777898  0.87590043    -0.22720
C913        C  0.46941396  0.35659868  0.52435286    -0.05550
C914        C  0.50086589  0.34078605  0.99221058     0.00370
C915        C  0.28073917  0.35794523  0.95962679    -0.08200
C916        C  0.28006967  0.39021053  0.96349245    -0.05570
C917        C  0.49818909  0.40583536  0.99523038     0.00360
C918        C  0.46657115  0.38877461  0.52560752    -0.08110
C919        C  0.43031364  0.40402682  0.56002126     0.62270
H920        H  0.44701870  0.34333365  0.54924111     0.12970
H921        H  0.30365300  0.40345270  0.93982902     0.12980
C922        C  0.31302172  0.34387627  0.91950310     0.62510
F923        F  0.40787834  0.38304568  0.59118795    -0.22660
F924        F  0.39903966  0.41777836  0.53193793    -0.19990
F925        F  0.44898455  0.42591995  0.58975213    -0.19670
F926        F  0.30362853  0.31345908  0.90940347    -0.19720
F927        F  0.35624464  0.34606492  0.93426811    -0.20040
F928        F  0.31058482  0.35985250  0.87545207    -0.22720
C929        C  0.22780178  0.61035969  0.71392020    -0.05550
C930        C  0.49992767  0.59430100  0.74998507     0.00370
C931        C  0.51989094  0.61068359  0.78832459    -0.08200
C932        C  0.51518379  0.64277375  0.79043209    -0.05570
C933        C  0.49288130  0.65894341  0.75461209     0.00360
C934        C  0.22490391  0.64268631  0.71469504    -0.08110
C935        C  0.20431229  0.65915830  0.67223232     0.62270
H936        H  0.21318292  0.59729956  0.68468649     0.12970
H937        H  0.52940250  0.65572098  0.82005902     0.12980
C938        C  0.54583998  0.59446354  0.82700928     0.62510
F939        F  0.19773605  0.63938061  0.63280711    -0.22660
F940        F  0.23237401  0.68249291  0.65448906    -0.19990
F941        F  0.41322399  0.67146464  0.68849662    -0.19670
F942        F  0.33446122  0.58167440  0.80423719    -0.19720
F943        F  0.51997070  0.57148589  0.84951818    -0.20040
F944        F  0.55814915  0.61443563  0.86398364    -0.22720
C945        C  0.47162039  0.64425335  0.96810497    -0.05550
C946        C  0.50288526  0.66037820  0.49508172     0.00370
C947        C  0.28108001  0.64350403  0.52538866    -0.08200
C948        C  0.27993689  0.61118317  0.52314680    -0.05570
C949        C  0.49826440  0.59526853  0.99662775     0.00360
C950        C  0.46727354  0.61217048  0.97004796    -0.08110
C951        C  0.42975515  0.59683961  0.94353975     0.62270
H952        H  0.45026332  0.65718668  0.94503212     0.12970
H953        H  0.30275602  0.59811855  0.54441155     0.12980
C954        C  0.31148128  0.65800182  0.56194536     0.62510
F955        F  0.40710222  0.61749864  0.91553671    -0.22660
F956        F  0.39890589  0.58426251  0.97840530    -0.19990
F957        F  0.19682586  0.57396688  0.91167935    -0.19670
F958        F  0.55081771  0.68835386  0.57272959    -0.19720
F959        F  0.35553172  0.65614150  0.54261555    -0.20040
F960        F  0.30747995  0.64224434  0.60659285    -0.22720
C961        C  0.37023436  0.10880839  0.79433735    -0.05550
C962        C  0.37558442  0.09435603  0.74762702     0.00370
C963        C  0.38024037  0.11215599  0.70380684    -0.08200
C964        C  0.37897781  0.14445608  0.70822124    -0.05570
C965        C  0.37356614  0.15892131  0.75505592     0.00360
C966        C  0.36951393  0.14101197  0.79889366    -0.08110
C967        C  0.36526046  0.15594043  0.85023469     0.62270
H968        H  0.36709965  0.09456718  0.82727947     0.12970
H969        H  0.38213550  0.15868089  0.67527416     0.12980
C970        C  0.38593424  0.09691205  0.65288079     0.62510
F971        F  0.36058046  0.13426731  0.88757897    -0.22660
F972        F  0.32802125  0.17484557  0.85475295    -0.19990
F973        F  0.40316887  0.17319563  0.85726881    -0.19670
F974        F  0.34823631  0.07967349  0.64477690    -0.19720
F975        F  0.42303798  0.07785587  0.65022390    -0.20040
F976        F  0.39204007  0.11835907  0.61537239    -0.22720
C977        C  0.33923508  0.89189975  0.77798541    -0.05550
C978        C  0.37552814  0.90498970  0.74964723     0.00370
C979        C  0.40838341  0.88538280  0.72546904    -0.08200
C980        C  0.40237822  0.85334097  0.72916147    -0.05570
C981        C  0.36671694  0.84018927  0.75882713     0.00360
C982        C  0.33489768  0.86002120  0.78474062    -0.08110
C983        C  0.29619156  0.84876965  0.81990625     0.62270
H984        H  0.31434359  0.90706517  0.79624796     0.12970
H985        H  0.42628775  0.83814790  0.70941010     0.12980
C986        C  0.44975811  0.89782367  0.69614179     0.62510
F987        F  0.28231217  0.87141702  0.85408313    -0.22660
F988        F  0.30830394  0.82362436  0.84700509    -0.19990
F989        F  0.26018251  0.84124000  0.79277393    -0.19670
F990        F  0.47703113  0.91251313  0.72826239    -0.19720
F991        F  0.43739054  0.91829801  0.66054304    -0.20040
F992        F  0.47473812  0.87467857  0.67185715    -0.22720
C993        C  0.41089576  0.14471251  0.97766866    -0.05550
C994        C  0.37545712  0.15955503  0.50564864     0.00370
C995        C  0.34150416  0.14117762  0.53070637    -0.08200
C996        C  0.34317890  0.10914695  0.52394413    -0.05570
C997        C  0.37948945  0.09441318  0.49781600     0.00360
C998        C  0.41450620  0.11248276  0.97463679    -0.08110
C999        C  0.45525617  0.09830681  0.94605304     0.62270
H1000       H  0.43616845  0.15869286  0.95799247     0.12970
H1001       H  0.31665818  0.09517035  0.54154204     0.12980
C1002       C  0.30442522  0.15397569  0.56687373     0.62510
F1003       F  0.48223766  0.12027643  0.92197974    -0.22660
F1004       F  0.44171438  0.07797556  0.91029895    -0.19990
F1005       F  0.48104480  0.08307663  0.47867707    -0.19670
F1006       F  0.26800500  0.16206924  0.04101013    -0.19720
F1007       F  0.31906467  0.17904119  0.59313812    -0.20040
F1008       F  0.29013062  0.13219525  0.60179792    -0.22720
C1009       C  0.39583357  0.89150701  0.94907351    -0.05550
C1010       C  0.37526911  0.90510073  0.99225228     0.00370
C1011       C  0.35695130  0.88646652  0.53151599    -0.08200
C1012       C  0.35976168  0.85429402  0.52588144    -0.05570
C1013       C  0.38046456  0.84067730  0.98261089     0.00360
C1014       C  0.39854413  0.85945694  0.94329965    -0.08110
C1015       C  0.42022079  0.84579182  0.89524358     0.62270
H1016       H  0.40981756  0.90633557  0.91974391     0.12970
H1017       H  0.34588730  0.83942929  0.55519757     0.12980
C1018       C  0.33562660  0.90048810  0.57938545     0.62510
F1019       F  0.42876676  0.86795869  0.85913246    -0.22660
F1020       F  0.39227823  0.82404477  0.87632886    -0.19990
F1021       F  0.46039977  0.83203461  0.90437439    -0.19670
F1022       F  0.29728303  0.91636664  0.56946682    -0.19720
F1023       F  0.36538466  0.92053143  0.59963444    -0.20040
F1024       F  0.32391832  0.87831070  0.61461969    -0.22720
O1025       O  0.58836627  0.95376872  0.49924645    -0.72720
O1026       O  0.59135672  0.04609493  0.49918797    -0.73700
O1027       O  0.58951387  0.99982957  0.42483581    -0.62320
O1028       O  0.58966078  0.00012874  0.07356802    -0.70730
O1029       O  0.66410129  0.99866894  0.06754054    -0.70280
O1030       O  0.66398299  0.99956638  0.41866419    -0.61530
O1031       O  0.66550547  0.04500335  0.99413895    -0.74040
O1032       O  0.66281218  0.95306572  0.99169098    -0.72820
Cu1033     Cu  0.58709814  0.99999826  0.49944530     1.04560
Cu1034     Cu  0.66668700  0.99900967  0.99284504     1.04330
C1035       C  0.62533080  0.93894662  0.49517497     0.93480
C1036       C  0.62894931  0.06020281  0.99651954     0.92620
C1037       C  0.62669868  0.99985452  0.39834354     0.84770
C1038       C  0.62686839  0.99940662  0.09396403     0.91040
O1039       O  0.58969631  0.95393519  0.24905243    -0.72720
O1040       O  0.58890243  0.04600756  0.24936046    -0.73700
O1041       O  0.58950170  0.99971177  0.17467041    -0.62320
O1042       O  0.58934883  0.00011267  0.32358462    -0.70730
O1043       O  0.66382045  0.00032040  0.31756133    -0.70280
O1044       O  0.66397328  0.99943150  0.16879972    -0.61530
O1045       O  0.66340920  0.04618392  0.24298363    -0.74040
O1046       O  0.66389159  0.95367431  0.24360796    -0.72820
Cu1047     Cu  0.58677543  0.99993918  0.24930988     1.04560
Cu1048     Cu  0.66639857  0.99992732  0.24297478     1.04330
C1049       C  0.62671921  0.93912571  0.24671687     0.93480
C1050       C  0.62603227  0.06055738  0.24615384     0.92620
C1051       C  0.62678151  0.99949298  0.14832577     0.84770
C1052       C  0.62660445  0.00014312  0.34398481     0.91040
C1053       C  0.62641395  0.19387865  0.00934099     0.03360
C1054       C  0.58747765  0.21127097  0.00539172    -0.12790
C1055       C  0.58629373  0.24280934  0.01738945     0.00860
C1056       C  0.62669870  0.25751541  0.02677044    -0.11320
C1057       C  0.66786720  0.24176423  0.02086068     0.03350
C1058       C  0.66688595  0.20954386  0.01509419    -0.10740
H1059       H  0.55799807  0.20000650  0.99321703     0.08860
H1060       H  0.62634379  0.28139828  0.03794662     0.06470
H1061       H  0.69753109  0.19645217  0.01385035     0.06320
C1062       C  0.62314600  0.19286740  0.25782168     0.03360
C1063       C  0.58253880  0.20896295  0.26078297    -0.12790
C1064       C  0.58123533  0.24079117  0.27159338     0.00860
C1065       C  0.62190716  0.25572892  0.27933171    -0.11320
C1066       C  0.66339156  0.24062919  0.27048852     0.03350
C1067       C  0.66339409  0.20888812  0.25986623    -0.10740
H1068       H  0.55237590  0.19619303  0.25475304     0.08940
H1069       H  0.62140524  0.27924877  0.29228594     0.06470
H1070       H  0.69435262  0.19618243  0.25330243     0.06320
C1071       C  0.63100698  0.80680274  0.47823545     0.03360
C1072       C  0.59106517  0.79064296  0.97333644    -0.12790
C1073       C  0.59134114  0.75863645  0.96397720     0.00860
C1074       C  0.63319512  0.74360445  0.95861259    -0.11320
C1075       C  0.67309677  0.75900538  0.96837857     0.03350
C1076       C  0.67137360  0.79069906  0.97853722    -0.10740
H1077       H  0.56009149  0.80347944  0.97771734     0.08940
H1078       H  0.63504013  0.71973992  0.94739921     0.06470
H1079       H  0.70124671  0.80314774  0.98707649     0.06320
C1080       C  0.61616134  0.80599361  0.26456422     0.03360
C1081       C  0.57683454  0.78899282  0.26057095    -0.12790
C1082       C  0.57484284  0.75778920  0.27362949     0.00860
C1083       C  0.61436072  0.74298299  0.28578624    -0.11320
C1084       C  0.65605801  0.75813613  0.28128624     0.03350
C1085       C  0.65587378  0.79015600  0.27297321    -0.10740
H1086       H  0.54766838  0.80021452  0.24768974     0.08940
H1087       H  0.61236367  0.71948469  0.29824510     0.06470
H1088       H  0.68654687  0.80319027  0.27193160     0.06320
C1089       C  0.75545345  0.69428885  0.98758721     0.03360
C1090       C  0.71567845  0.71126357  0.98687552    -0.12790
C1091       C  0.71600010  0.74175355  0.97032578     0.00860
C1092       C  0.50744629  0.75594156  0.95777323    -0.11320
C1093       C  0.54819264  0.74085130  0.96469291     0.03350
C1094       C  0.54656173  0.70926171  0.97665560    -0.10740
H1095       H  0.68426119  0.70026111  0.99864853     0.08940
H1096       H  0.50778365  0.77892721  0.94290586     0.06470
H1097       H  0.57688493  0.69611574  0.97893219     0.06320
C1098       C  0.74135590  0.69290563  0.25985837     0.03360
C1099       C  0.70058761  0.70846136  0.26940533    -0.12790
C1100       C  0.69939301  0.74034501  0.28011324     0.00860
C1101       C  0.49061730  0.75544159  0.28501280    -0.11320
C1102       C  0.53179046  0.74053562  0.27317385     0.03350
C1103       C  0.53158653  0.70925658  0.26007004    -0.10740
H1104       H  0.67020927  0.69526403  0.26835174     0.08940
H1105       H  0.49118549  0.77888731  0.29826463     0.06470
H1106       H  0.56270717  0.69719886  0.25040491     0.06320
C1107       C  0.75252613  0.30682484  0.49774732     0.03360
C1108       C  0.54284378  0.29178631  0.50536027    -0.12790
C1109       C  0.54329077  0.26028575  0.01712509     0.00860
C1110       C  0.75203881  0.24507505  0.02666991    -0.11320
C1111       C  0.71123954  0.25922015  0.01729181     0.03350
C1112       C  0.71246467  0.28997085  0.50110266    -0.10740
H1113       H  0.57362753  0.30475775  0.50113013     0.08940
H1114       H  0.75207490  0.22209713  0.04138592     0.06470
H1115       H  0.68217367  0.30140712  0.49150741     0.06320
C1116       C  0.74749583  0.30634651  0.25938083     0.03360
C1117       C  0.53790896  0.29050105  0.26301635    -0.12790
C1118       C  0.53817733  0.25857402  0.27229320     0.00860
C1119       C  0.74667496  0.24343871  0.27971502    -0.11320
C1120       C  0.70630238  0.25822629  0.27053152     0.03350
C1121       C  0.70753743  0.28976115  0.25927287    -0.10740
H1122       H  0.56872109  0.30343562  0.25811876     0.08940
H1123       H  0.74578136  0.21997544  0.29239400     0.06470
H1124       H  0.67762782  0.30179849  0.25010187     0.06320
O1125       O  0.71212286  0.54637491  0.50049724    -0.72720
O1126       O  0.71221487  0.45480961  0.49832917    -0.73700
O1127       O  0.71253166  0.50017589  0.07393620    -0.62320
O1128       O  0.71249381  0.50072431  0.42495794    -0.70730
O1129       O  0.53695810  0.50062772  0.41915894    -0.70280
O1130       O  0.53699799  0.50020449  0.06780091    -0.61530
O1131       O  0.53648262  0.45417804  0.49249775    -0.74040
O1132       O  0.53638658  0.54689567  0.49452801    -0.72820
Cu1133     Cu  0.70979777  0.50055333  0.49965878     1.04560
Cu1134     Cu  0.53936920  0.50051006  0.49330399     1.04330
C1135       C  0.74892205  0.56124762  0.49724838     0.93480
C1136       C  0.74899880  0.43989795  0.49549467     0.92620
C1137       C  0.74982949  0.50003038  0.09426946     0.84770
C1138       C  0.74979920  0.50052897  0.39863638     0.91040
O1139       O  0.71291967  0.54590610  0.24893562    -0.72720
O1140       O  0.71354571  0.45346796  0.24993849    -0.73700
O1141       O  0.71285180  0.50033184  0.32371915    -0.62320
O1142       O  0.71285309  0.49917844  0.17506181    -0.70730
O1143       O  0.53731766  0.50013064  0.16893866    -0.70280
O1144       O  0.53732088  0.49955984  0.31792346    -0.61530
O1145       O  0.53792766  0.45364824  0.24218970    -0.74040
O1146       O  0.53732807  0.54587815  0.24480609    -0.72820
Cu1147     Cu  0.71043029  0.49969100  0.24955651     1.04560
Cu1148     Cu  0.54008458  0.49979463  0.24319012     1.04330
C1149       C  0.75014140  0.56041059  0.24762992     0.93480
C1150       C  0.75087290  0.43900470  0.24601502     0.92620
C1151       C  0.75001030  0.50011123  0.34424280     0.84770
C1152       C  0.75001931  0.49973736  0.14860330     0.91040
C1153       C  0.52121474  0.35425556  0.21528316    -0.05550
C1154       C  0.74705911  0.34038815  0.25583704     0.00370
C1155       C  0.72488676  0.35910771  0.29348677    -0.08200
C1156       C  0.72669993  0.39121013  0.28824766    -0.05570
C1157       C  0.75089078  0.40505860  0.24785193     0.00360
C1158       C  0.52377905  0.38646285  0.21071440    -0.08110
C1159       C  0.55024022  0.40048624  0.16621667     0.62270
H1160       H  0.53834969  0.33955523  0.18736129     0.12970
H1161       H  0.70950607  0.40589771  0.31616615     0.12980
C1162       C  0.70004673  0.34556707  0.33961865     0.62510
F1163       F  0.56467768  0.37837749  0.13137452    -0.22660
F1164       F  0.58752447  0.41548166  0.18190639    -0.19990
F1165       F  0.52383775  0.42125396  0.14297997    -0.19670
F1166       F  0.72588040  0.32330603  0.36017646    -0.19720
F1167       F  0.66017646  0.33263276  0.32708976    -0.20040
F1168       F  0.69013646  0.36777476  0.37592210    -0.22720
C1169       C  0.71941761  0.35656329  0.02437785    -0.05550
C1170       C  0.75086471  0.34082392  0.49218475     0.00370
C1171       C  0.53073957  0.35798579  0.45960709    -0.08200
C1172       C  0.53006964  0.39025068  0.46348003    -0.05570
C1173       C  0.74818722  0.40587284  0.49521888     0.00360
C1174       C  0.71657542  0.38873934  0.02562599    -0.08110
C1175       C  0.68032153  0.40399425  0.06004108     0.62270
H1176       H  0.69702378  0.34330016  0.04927057     0.12970
H1177       H  0.55365414  0.40349474  0.43982098     0.12980
C1178       C  0.56302456  0.34392077  0.41948214     0.62510
F1179       F  0.65788899  0.38301560  0.09121481    -0.22660
F1180       F  0.64904457  0.41774374  0.03195933    -0.19990
F1181       F  0.69899631  0.42588953  0.08976477    -0.19670
F1182       F  0.55363947  0.31350261  0.40938095    -0.19720
F1183       F  0.60624707  0.34611427  0.43424662    -0.20040
F1184       F  0.56058261  0.35989742  0.37543226    -0.22720
C1185       C  0.47780145  0.61035863  0.21388695    -0.05550
C1186       C  0.74992790  0.59430087  0.24995214     0.00370
C1187       C  0.76989098  0.61068455  0.28829076    -0.08200
C1188       C  0.76518420  0.64277457  0.29039593    -0.05570
C1189       C  0.74288133  0.65894331  0.25457548     0.00360
C1190       C  0.47490287  0.64268535  0.21466044    -0.08110
C1191       C  0.45430874  0.65915652  0.17219867     0.62270
H1192       H  0.46318204  0.59729771  0.18465452     0.12970
H1193       H  0.77940252  0.65572245  0.32002240     0.12980
C1194       C  0.79583784  0.59446571  0.32697867     0.62510
F1195       F  0.44773087  0.63937821  0.13277472    -0.22660
F1196       F  0.48236921  0.68249119  0.15445313    -0.19990
F1197       F  0.66322166  0.67146285  0.18846395    -0.19670
F1198       F  0.58445911  0.58167411  0.30420933    -0.19720
F1199       F  0.76996570  0.57149050  0.34949039    -0.20040
F1200       F  0.80814795  0.61443924  0.36395059    -0.22720
C1201       C  0.72161918  0.64429065  0.46810523    -0.05550
C1202       C  0.75288831  0.66034053  0.99508058     0.00370
C1203       C  0.53108316  0.64346613  0.02538702    -0.08200
C1204       C  0.52993933  0.61114539  0.02314503    -0.05570
C1205       C  0.74826340  0.59530589  0.49662879     0.00360
C1206       C  0.71727375  0.61220765  0.47004689    -0.08110
C1207       C  0.67975879  0.59687631  0.44353388     0.62270
H1208       H  0.70026264  0.65722388  0.44503163     0.12970
H1209       H  0.55275882  0.59808055  0.04440904     0.12980
C1210       C  0.56148518  0.65796297  0.06194387     0.62510
F1211       F  0.65710745  0.61753515  0.41552887    -0.22660
F1212       F  0.64890727  0.58429796  0.47839568    -0.19990
F1213       F  0.44683452  0.57400441  0.41167417    -0.19670
F1214       F  0.80082855  0.68831620  0.07272309    -0.19720
F1215       F  0.60553609  0.65609772  0.04261706    -0.20040
F1216       F  0.55747806  0.64220773  0.10659330    -0.22720
C1217       C  0.62023158  0.10880654  0.29431284    -0.05550
C1218       C  0.62558777  0.09435537  0.24760194     0.00370
C1219       C  0.63025350  0.11215639  0.20378357    -0.08200
C1220       C  0.62899027  0.14445649  0.20820010    -0.05570
C1221       C  0.62357106  0.15892047  0.25503553     0.00360
C1222       C  0.61951338  0.14100987  0.29887173    -0.08110
C1223       C  0.61525832  0.15593663  0.35021416     0.62270
H1224       H  0.61709140  0.09456444  0.32725375     0.12970
H1225       H  0.63215386  0.15868218  0.17525427     0.12980
C1226       C  0.63595891  0.09691353  0.15285747     0.62510
F1227       F  0.61057778  0.13426234  0.38755672    -0.22660
F1228       F  0.57801902  0.17484162  0.35473297    -0.19990
F1229       F  0.65316642  0.17319158  0.35725096    -0.19670
F1230       F  0.59826324  0.07967549  0.14474160    -0.19720
F1231       F  0.67306204  0.07785691  0.15021033    -0.20040
F1232       F  0.64207442  0.11836136  0.11535147    -0.22720
C1233       C  0.58923652  0.89189916  0.27801298    -0.05550
C1234       C  0.62552929  0.90498976  0.24967515     0.00370
C1235       C  0.65838347  0.88538346  0.22549348    -0.08200
C1236       C  0.65237673  0.85334171  0.22918076    -0.05570
C1237       C  0.61671530  0.84018917  0.25884484     0.00360
C1238       C  0.58489797  0.86002016  0.28476306    -0.08110
C1239       C  0.54619247  0.84876701  0.31992774     0.62270
H1240       H  0.56434587  0.90706419  0.29627809     0.12970
H1241       H  0.67628480  0.83814922  0.20942575     0.12980
C1242       C  0.69975836  0.89782484  0.19616703     0.62510
F1243       F  0.53231811  0.87141173  0.35411157    -0.22660
F1244       F  0.55830316  0.82361774  0.34701849    -0.19990
F1245       F  0.51018101  0.84124257  0.29279574    -0.19670
F1246       F  0.72703144  0.91251329  0.22828873    -0.19720
F1247       F  0.68739104  0.91830016  0.16056957    -0.20040
F1248       F  0.72473836  0.87468027  0.17188090    -0.22720
C1249       C  0.66089300  0.14474821  0.47765134    -0.05550
C1250       C  0.62545696  0.15951782  0.00566350     0.00370
C1251       C  0.59150042  0.14113893  0.03071208    -0.08200
C1252       C  0.59317627  0.10910871  0.02394503    -0.05570
C1253       C  0.62948962  0.09437640  0.99781986     0.00360
C1254       C  0.66450386  0.11251830  0.47462558    -0.08110
C1255       C  0.70525179  0.09834082  0.44604030     0.62270
H1256       H  0.68616349  0.15872756  0.45796938     0.12970
H1257       H  0.56665362  0.09513118  0.04153682     0.12980
C1258       C  0.55441696  0.15393430  0.06687633     0.62510
F1259       F  0.73223176  0.12030910  0.42196134    -0.22660
F1260       F  0.69170712  0.07800749  0.41029079    -0.19990
F1261       F  0.73104664  0.08304065  0.97868947    -0.19670
F1262       F  0.51801016  0.16210969  0.54101225    -0.19720
F1263       F  0.56905198  0.17899830  0.09314754    -0.20040
F1264       F  0.54011893  0.13215153  0.10179508    -0.22720
C1265       C  0.64583170  0.89154435  0.44907696    -0.05550
C1266       C  0.62526430  0.90513796  0.49225411     0.00370
C1267       C  0.60695915  0.88642918  0.03151611    -0.08200
C1268       C  0.60976889  0.85425660  0.02588143    -0.05570
C1269       C  0.63046058  0.84071483  0.48261337     0.00360
C1270       C  0.64854270  0.85949440  0.44330331    -0.08110
C1271       C  0.67022286  0.84582949  0.39524881     0.62270
H1272       H  0.65981768  0.90637295  0.41974845     0.12970
H1273       H  0.59589675  0.83939192  0.05519880     0.12980
C1274       C  0.58563880  0.90045074  0.07938764     0.62510
F1275       F  0.67877328  0.86799669  0.35913914    -0.22660
F1276       F  0.64228137  0.82408336  0.37632987    -0.19990
F1277       F  0.71039996  0.83207125  0.40438383    -0.19670
F1278       F  0.54729496  0.91633031  0.06947328    -0.19720
F1279       F  0.61539978  0.92049310  0.09963384    -0.20040
F1280       F  0.57393217  0.87827327  0.11462235    -0.22720
O1281       O  0.58837015  0.95373149  0.99924527    -0.72720
O1282       O  0.59135823  0.04605784  0.99918789    -0.73700
O1283       O  0.58951587  0.99979449  0.92483544    -0.62320
O1284       O  0.58965797  0.00016435  0.57356880    -0.70730
O1285       O  0.66409847  0.99870393  0.56754096    -0.70280
O1286       O  0.66398499  0.99953243  0.91866316    -0.61530
O1287       O  0.66550397  0.04503953  0.49413858    -0.74040
O1288       O  0.66280838  0.95310213  0.49169284    -0.72820
Cu1289     Cu  0.58710075  0.99996143  0.99944467     1.04560
Cu1290     Cu  0.66668444  0.99904558  0.49284587     1.04330
C1291       C  0.62533499  0.93890967  0.99517329     0.93480
C1292       C  0.62894817  0.06023947  0.49651862     0.92620
C1293       C  0.62670047  0.99982336  0.89834294     0.84770
C1294       C  0.62686558  0.99943867  0.59396454     0.91040
O1295       O  0.58969635  0.95393563  0.74903084    -0.72720
O1296       O  0.58890026  0.04600783  0.74938267    -0.73700
O1297       O  0.58949940  0.99972726  0.67467117    -0.62320
O1298       O  0.58934954  0.00009783  0.82358503    -0.70730
O1299       O  0.66382115  0.00030599  0.81756054    -0.70280
O1300       O  0.66397100  0.99944706  0.66879934    -0.61530
O1301       O  0.66340703  0.04618487  0.74300460    -0.74040
O1302       O  0.66389161  0.95367434  0.74358537    -0.72820
Cu1303     Cu  0.58677456  0.99993949  0.74931046     1.04560
Cu1304     Cu  0.66639769  0.99992791  0.74297406     1.04330
C1305       C  0.62671907  0.93912585  0.74669114     0.93480
C1306       C  0.62602976  0.06055802  0.74617898     0.92620
C1307       C  0.62677897  0.99951423  0.64832606     0.84770
C1308       C  0.62660552  0.00012279  0.84398450     0.91040
C1309       C  0.62641394  0.19391599  0.50931968     0.03360
C1310       C  0.58747711  0.21130774  0.50537020    -0.12790
C1311       C  0.58629377  0.24284705  0.51736214     0.00860
C1312       C  0.62669932  0.25755362  0.52673929    -0.11320
C1313       C  0.66786762  0.24180221  0.52083013     0.03350
C1314       C  0.66688629  0.20958165  0.51506768    -0.10740
H1315       H  0.55799704  0.20004198  0.49319936     0.08860
H1316       H  0.62634511  0.28143694  0.53791262     0.06470
H1317       H  0.69753149  0.19648992  0.51382354     0.06320
C1318       C  0.62314143  0.19286828  0.75783866     0.03360
C1319       C  0.58253464  0.20896419  0.76079520    -0.12790
C1320       C  0.58123191  0.24079359  0.77159603     0.00860
C1321       C  0.62190406  0.25573218  0.77932984    -0.11320
C1322       C  0.66338812  0.24063136  0.77049125     0.03350
C1323       C  0.66338988  0.20888909  0.75987889    -0.10740
H1324       H  0.55237158  0.19619378  0.75476796     0.08940
H1325       H  0.62140268  0.27925356  0.79227651     0.06470
H1326       H  0.69434814  0.19618272  0.75331807     0.06320
C1327       C  0.63101094  0.80676509  0.97823356     0.03360
C1328       C  0.59106120  0.79068080  0.47333777    -0.12790
C1329       C  0.59133707  0.75867429  0.46397899     0.00860
C1330       C  0.63319100  0.74364220  0.45861443    -0.11320
C1331       C  0.67309262  0.75904297  0.46838095     0.03350
C1332       C  0.67136940  0.79073655  0.47854030    -0.10740
H1333       H  0.56008761  0.80351739  0.47771815     0.08940
H1334       H  0.63503597  0.71977772  0.44740079     0.06470
H1335       H  0.70124234  0.80318501  0.48708086     0.06320
C1336       C  0.61616504  0.80599410  0.76455397     0.03360
C1337       C  0.57683851  0.78899209  0.76056698    -0.12790
C1338       C  0.57484629  0.75779088  0.77363985     0.00860
C1339       C  0.61436398  0.74298701  0.78580283    -0.11320
C1340       C  0.65606156  0.75813952  0.78129507     0.03350
C1341       C  0.65587787  0.79015802  0.77296764    -0.10740
H1342       H  0.54767254  0.80021119  0.74768047     0.08940
H1343       H  0.61236664  0.71949087  0.79827241     0.06470
H1344       H  0.68655128  0.80319217  0.77192026     0.06320
C1345       C  0.75544975  0.69432656  0.48758923     0.03360
C1346       C  0.71567451  0.71130098  0.48687690    -0.12790
C1347       C  0.71599599  0.74179114  0.47032792     0.00860
C1348       C  0.50744210  0.75597935  0.45777566    -0.11320
C1349       C  0.54818854  0.74088921  0.46469531     0.03350
C1350       C  0.54655786  0.70929973  0.47665858    -0.10740
H1351       H  0.68425730  0.70029818  0.49864901     0.08940
H1352       H  0.50777926  0.77896503  0.44290843     0.06470
H1353       H  0.57688116  0.69615403  0.47893568     0.06320
C1354       C  0.74135751  0.69290581  0.75989343     0.03360
C1355       C  0.70058968  0.70846307  0.76943426    -0.12790
C1356       C  0.69939598  0.74034817  0.78013038     0.00860
C1357       C  0.49062060  0.75544525  0.78502488    -0.11320
C1358       C  0.53179345  0.74053723  0.77319272     0.03350
C1359       C  0.53158872  0.70925628  0.76010133    -0.10740
H1360       H  0.67021082  0.69526600  0.76838331     0.08940
H1361       H  0.49118913  0.77889309  0.79826670     0.06470
H1362       H  0.56270905  0.69719726  0.75044033     0.06320
C1363       C  0.75252598  0.30678716  0.99777827     0.03360
C1364       C  0.54284373  0.29174831  0.00538931    -0.12790
C1365       C  0.54329089  0.26032366  0.51709604     0.00860
C1366       C  0.75203879  0.24511316  0.52664032    -0.11320
C1367       C  0.71123997  0.25925785  0.51725959     0.03350
C1368       C  0.71246398  0.28993366  0.00113685    -0.10740
H1369       H  0.57362789  0.30471921  0.00115704     0.08940
H1370       H  0.75207424  0.22213582  0.54135858     0.06470
H1371       H  0.68217267  0.30137029  0.99154353     0.06320
C1372       C  0.74749366  0.30634728  0.75936270     0.03360
C1373       C  0.53790657  0.29050245  0.76300311    -0.12790
C1374       C  0.53817436  0.25857651  0.77228961     0.00860
C1375       C  0.74667170  0.24344201  0.77971590    -0.11320
C1376       C  0.70629941  0.25822839  0.77052772     0.03350
C1377       C  0.70753509  0.28976181  0.75925899    -0.10740
H1378       H  0.56871881  0.30343667  0.75810269     0.08940
H1379       H  0.74577762  0.21998031  0.79240238     0.06470
H1380       H  0.67762557  0.30179819  0.75008505     0.06320
O1381       O  0.71212375  0.54633776  0.00049653    -0.72720
O1382       O  0.71221646  0.45477228  0.99833139    -0.73700
O1383       O  0.71253043  0.50021069  0.57393628    -0.62320
O1384       O  0.71249484  0.50068842  0.92495813    -0.70730
O1385       O  0.53695911  0.50059181  0.91915877    -0.70280
O1386       O  0.53699674  0.50023915  0.56780101    -0.61530
O1387       O  0.53648419  0.45414091  0.99249978    -0.74040
O1388       O  0.53638751  0.54685857  0.99452675    -0.72820
Cu1389     Cu  0.70979896  0.50051647  0.99965899     1.04560
Cu1390     Cu  0.53937040  0.50047332  0.99330393     1.04330
C1391       C  0.74892294  0.56121041  0.99724736     0.93480
C1392       C  0.74900049  0.43986064  0.99549901     0.92620
C1393       C  0.74982826  0.50006193  0.59426953     0.84770
C1394       C  0.74980012  0.50049655  0.89863636     0.91040
O1395       O  0.71292013  0.54590652  0.74895832    -0.72720
O1396       O  0.71354441  0.45346865  0.74991646    -0.73700
O1397       O  0.71285228  0.50031704  0.82371947    -0.62320
O1398       O  0.71285221  0.49919419  0.67506169    -0.70730
O1399       O  0.53731676  0.50014625  0.66893857    -0.70280
O1400       O  0.53732133  0.49954403  0.81792281    -0.61530
O1401       O  0.53792638  0.45364797  0.74216642    -0.74040
O1402       O  0.53732854  0.54587829  0.74482931    -0.72820
Cu1403     Cu  0.71043005  0.49969158  0.74955666     1.04560
Cu1404     Cu  0.54008433  0.49979456  0.74318978     1.04330
C1405       C  0.75014182  0.56041079  0.74765767     0.93480
C1406       C  0.75087107  0.43900491  0.74598862     0.92620
C1407       C  0.75001092  0.50009010  0.84424267     0.84770
C1408       C  0.75001827  0.49975854  0.64860325     0.91040
C1409       C  0.52120991  0.35425496  0.71525807    -0.05550
C1410       C  0.74705647  0.34038868  0.75581473     0.00370
C1411       C  0.72488606  0.35910926  0.79346435    -0.08200
C1412       C  0.72669860  0.39121137  0.78822238    -0.05570
C1413       C  0.75088727  0.40505882  0.74782415     0.00360
C1414       C  0.52377391  0.38646223  0.71068677    -0.08110
C1415       C  0.55023334  0.40048480  0.66618727     0.62270
H1416       H  0.53834374  0.33955384  0.68733652     0.12970
H1417       H  0.70950663  0.40589965  0.81614124     0.12980
C1418       C  0.70004962  0.34556989  0.83959966     0.62510
F1419       F  0.56466977  0.37837534  0.63134585    -0.22660
F1420       F  0.58751801  0.41548089  0.68187449    -0.19990
F1421       F  0.52382969  0.42125189  0.64295080    -0.19670
F1422       F  0.72588732  0.32331171  0.86015895    -0.19720
F1423       F  0.66018017  0.33263236  0.82707519    -0.20040
F1424       F  0.69013797  0.36777895  0.87590055    -0.22720
C1425       C  0.71941393  0.35659864  0.52435277    -0.05550
C1426       C  0.75086587  0.34078601  0.99221048     0.00370
C1427       C  0.53073923  0.35794527  0.95962706    -0.08200
C1428       C  0.53006976  0.39021056  0.96349281    -0.05570
C1429       C  0.74818906  0.40583532  0.99523033     0.00360
C1430       C  0.71657113  0.38877456  0.52560745    -0.08110
C1431       C  0.68031362  0.40402677  0.56002120     0.62270
H1432       H  0.69701867  0.34333360  0.54924100     0.12970
H1433       H  0.55365309  0.40345275  0.93982939     0.12980
C1434       C  0.56302177  0.34387633  0.91950333     0.62510
F1435       F  0.65787831  0.38304563  0.59118786    -0.22660
F1436       F  0.64903964  0.41777832  0.53193788    -0.19990
F1437       F  0.69898453  0.42591989  0.58975210    -0.19670
F1438       F  0.55362857  0.31345915  0.90940365    -0.19720
F1439       F  0.60624469  0.34606497  0.93426831    -0.20040
F1440       F  0.56058483  0.35985260  0.87545233    -0.22720
C1441       C  0.47780142  0.61035964  0.71392074    -0.05550
C1442       C  0.74992765  0.59430095  0.74998495     0.00370
C1443       C  0.76989093  0.61068359  0.78832442    -0.08200
C1444       C  0.76518380  0.64277375  0.79043182    -0.05570
C1445       C  0.74288129  0.65894336  0.75461179     0.00360
C1446       C  0.47490349  0.64268625  0.71469548    -0.08110
C1447       C  0.45431142  0.65915815  0.67223295     0.62270
H1448       H  0.46318232  0.59729946  0.68468726     0.12970
H1449       H  0.77940253  0.65572101  0.82005870     0.12980
C1450       C  0.79583997  0.59446358  0.82700915     0.62510
F1451       F  0.44773506  0.63938040  0.63280784    -0.22660
F1452       F  0.48237284  0.68249285  0.65448942    -0.19990
F1453       F  0.66322387  0.67146447  0.68849639    -0.19670
F1454       F  0.58446183  0.58167464  0.80423664    -0.19720
F1455       F  0.76997067  0.57148594  0.84951811    -0.20040
F1456       F  0.80814913  0.61443570  0.86398346    -0.22720
C1457       C  0.72162043  0.64425335  0.96810539    -0.05550
C1458       C  0.75288531  0.66037815  0.49508217     0.00370
C1459       C  0.53107970  0.64350407  0.52538955    -0.08200
C1460       C  0.52993666  0.61118321  0.52314767    -0.05570
C1461       C  0.74826446  0.59526849  0.99662796     0.00360
C1462       C  0.71727359  0.61217047  0.97004824    -0.08110
C1463       C  0.67975522  0.59683964  0.94353996     0.62270
H1464       H  0.70026333  0.65718671  0.94503262     0.12970
H1465       H  0.55275566  0.59811861  0.54441262     0.12980
C1466       C  0.56148069  0.65800190  0.56194651     0.62510
F1467       F  0.65710231  0.61749870  0.91553698    -0.22660
F1468       F  0.64890595  0.58426249  0.97840546    -0.19990
F1469       F  0.44682668  0.57396682  0.91167939    -0.19670
F1470       F  0.80081793  0.68835373  0.57272999    -0.19720
F1471       F  0.60553124  0.65614157  0.54261706    -0.20040
F1472       F  0.55747906  0.64224444  0.60659401    -0.22720
C1473       C  0.62023417  0.10880837  0.79433739    -0.05550
C1474       C  0.62558436  0.09435603  0.74762705     0.00370
C1475       C  0.63024041  0.11215600  0.70380689    -0.08200
C1476       C  0.62897785  0.14445609  0.70822133    -0.05570
C1477       C  0.62356607  0.15892130  0.75505601     0.00360
C1478       C  0.61951373  0.14101195  0.79889373    -0.08110
C1479       C  0.61526011  0.15594039  0.85023478     0.62270
H1480       H  0.61709937  0.09456715  0.82727949     0.12970
H1481       H  0.63213563  0.15868092  0.67527426     0.12980
C1482       C  0.63593437  0.09691208  0.65288083     0.62510
F1483       F  0.61058004  0.13426725  0.88757903    -0.22660
F1484       F  0.57802088  0.17484551  0.85475294    -0.19990
F1485       F  0.65316847  0.17319560  0.85726902    -0.19670
F1486       F  0.59823647  0.07967350  0.64477686    -0.19720
F1487       F  0.67303813  0.07785593  0.65022400    -0.20040
F1488       F  0.64204023  0.11835912  0.61537245    -0.22720
C1489       C  0.58923511  0.89189974  0.77798520    -0.05550
C1490       C  0.62552819  0.90498971  0.74964707     0.00370
C1491       C  0.65838348  0.88538283  0.72546890    -0.08200
C1492       C  0.65237828  0.85334100  0.72916125    -0.05570
C1493       C  0.61671699  0.84018928  0.75882686     0.00360
C1494       C  0.58489772  0.86002119  0.78474036    -0.08110
C1495       C  0.54619159  0.84876962  0.81990596     0.62270
H1496       H  0.56434359  0.90706515  0.79624774     0.12970
H1497       H  0.67628783  0.83814794  0.70940987     0.12980
C1498       C  0.69975822  0.89782371  0.69614173     0.62510
F1499       F  0.53231224  0.87141697  0.85408293    -0.22660
F1500       F  0.55830392  0.82362430  0.84700472    -0.19990
F1501       F  0.51018252  0.84124005  0.79277363    -0.19670
F1502       F  0.72703118  0.91251316  0.72826242    -0.19720
F1503       F  0.68739070  0.91829808  0.66054299    -0.20040
F1504       F  0.72473827  0.87467863  0.67185710    -0.22720
C1505       C  0.66089571  0.14471250  0.97766852    -0.05550
C1506       C  0.62545711  0.15955501  0.50564857     0.00370
C1507       C  0.59150420  0.14117760  0.53070638    -0.08200
C1508       C  0.59317893  0.10914692  0.52394415    -0.05570
C1509       C  0.62948944  0.09441316  0.49781594     0.00360
C1510       C  0.66450615  0.11248275  0.97463665    -0.08110
C1511       C  0.70525608  0.09830680  0.94605282     0.62270
H1512       H  0.68616837  0.15869284  0.95799229     0.12970
H1513       H  0.56665826  0.09517033  0.54154212     0.12980
C1514       C  0.55442530  0.15397567  0.56687379     0.62510
F1515       F  0.73223752  0.12027641  0.92197945    -0.22660
F1516       F  0.69171423  0.07797554  0.91029877    -0.19990
F1517       F  0.73104477  0.08307662  0.47867680    -0.19670
F1518       F  0.51800506  0.16206924  0.04101025    -0.19720
F1519       F  0.56906480  0.17904116  0.59313817    -0.20040
F1520       F  0.54013071  0.13219523  0.60179798    -0.22720
C1521       C  0.64583344  0.89150694  0.94907369    -0.05550
C1522       C  0.62526908  0.90510072  0.99225245     0.00370
C1523       C  0.60695137  0.88646658  0.53151630    -0.08200
C1524       C  0.60976176  0.85429407  0.52588189    -0.05570
C1525       C  0.63046454  0.84067728  0.98261136     0.00360
C1526       C  0.64854400  0.85945686  0.94329997    -0.08110
C1527       C  0.67022055  0.84579165  0.89524390     0.62270
H1528       H  0.65981736  0.90633544  0.91974398     0.12970
H1529       H  0.59588746  0.83942939  0.55519814     0.12980
C1530       C  0.58562677  0.90048824  0.57938575     0.62510
F1531       F  0.67876647  0.86795846  0.85913268    -0.22660
F1532       F  0.64227793  0.82404458  0.87632934    -0.19990
F1533       F  0.71039955  0.83203444  0.90437466    -0.19670
F1534       F  0.54728315  0.91636674  0.56946714    -0.19720
F1535       F  0.61538486  0.92053162  0.59963456    -0.20040
F1536       F  0.57391857  0.87831090  0.61462012    -0.22720
O1537       O  0.83836626  0.95376873  0.49924641    -0.72720
O1538       O  0.84135675  0.04609493  0.49918788    -0.73700
O1539       O  0.83951388  0.99982956  0.42483574    -0.62320
O1540       O  0.83966080  0.00012876  0.07356796    -0.70730
O1541       O  0.91410131  0.99866894  0.06754047    -0.70280
O1542       O  0.91398301  0.99956635  0.41866413    -0.61530
O1543       O  0.91550550  0.04500333  0.99413887    -0.74040
O1544       O  0.91281218  0.95306571  0.99169095    -0.72820
Cu1545     Cu  0.83709816  0.99999826  0.49944524     1.04560
Cu1546     Cu  0.91668702  0.99900966  0.99284498     1.04330
C1547       C  0.87533079  0.93894662  0.49517495     0.93480
C1548       C  0.87894935  0.06020281  0.99651946     0.92620
C1549       C  0.87669869  0.99985449  0.39834348     0.84770
C1550       C  0.87686841  0.99940664  0.09396397     0.91040
O1551       O  0.83969633  0.95393517  0.24905232    -0.72720
O1552       O  0.83890243  0.04600753  0.24936043    -0.73700
O1553       O  0.83950171  0.99971177  0.17467035    -0.62320
O1554       O  0.83934885  0.00011262  0.32358455    -0.70730
O1555       O  0.91382047  0.00032036  0.31756126    -0.70280
O1556       O  0.91397330  0.99943150  0.16879965    -0.61530
O1557       O  0.91340921  0.04618390  0.24298360    -0.74040
O1558       O  0.91389161  0.95367429  0.24360785    -0.72820
Cu1559     Cu  0.83677544  0.99993915  0.24930981     1.04560
Cu1560     Cu  0.91639859  0.99992731  0.24297471     1.04330
C1561       C  0.87671923  0.93912569  0.24671673     0.93480
C1562       C  0.87603228  0.06055736  0.24615382     0.92620
C1563       C  0.87678153  0.99949299  0.14832571     0.84770
C1564       C  0.87660446  0.00014308  0.34398475     0.91040
C1565       C  0.87641398  0.19387864  0.00934089     0.03360
C1566       C  0.83747767  0.21127095  0.00539163    -0.12790
C1567       C  0.83629375  0.24280933  0.01738934     0.00860
C1568       C  0.87669871  0.25751540  0.02677032    -0.11320
C1569       C  0.91786721  0.24176423  0.02086055     0.03350
C1570       C  0.91688598  0.20954386  0.01509407    -0.10740
H1571       H  0.80799809  0.20000647  0.99321696     0.08860
H1572       H  0.87634380  0.28139827  0.03794649     0.06470
H1573       H  0.94753112  0.19645217  0.01385021     0.06320
C1574       C  0.87314600  0.19286737  0.25782180     0.03360
C1575       C  0.83253879  0.20896292  0.26078309    -0.12790
C1576       C  0.83123532  0.24079113  0.27159352     0.00860
C1577       C  0.87190714  0.25572889  0.27933188    -0.11320
C1578       C  0.91339155  0.24062916  0.27048869     0.03350
C1579       C  0.91339408  0.20888809  0.25986638    -0.10740
H1580       H  0.80237590  0.19619300  0.25475314     0.08940
H1581       H  0.87140522  0.27924873  0.29228613     0.06470
H1582       H  0.94435262  0.19618240  0.25330257     0.06320
C1583       C  0.88100698  0.80680274  0.47823568     0.03360
C1584       C  0.84106515  0.79064295  0.97333684    -0.12790
C1585       C  0.84134112  0.75863643  0.96397764     0.00860
C1586       C  0.88319509  0.74360444  0.95861292    -0.11320
C1587       C  0.92309678  0.75900539  0.96837873     0.03350
C1588       C  0.92137362  0.79069907  0.97853734    -0.10740
H1589       H  0.81009148  0.80347942  0.97771783     0.08940
H1590       H  0.88504010  0.71973991  0.94739956     0.06470
H1591       H  0.95124676  0.80314777  0.98707648     0.06320
C1592       C  0.86616137  0.80599357  0.26456380     0.03360
C1593       C  0.82683460  0.78899278  0.26057044    -0.12790
C1594       C  0.82484288  0.75778916  0.27362896     0.00860
C1595       C  0.86436074  0.74298294  0.28578577    -0.11320
C1596       C  0.90605803  0.75813609  0.28128587     0.03350
C1597       C  0.90587381  0.79015597  0.27297286    -0.10740
H1598       H  0.79766844  0.80021448  0.24768919     0.08940
H1599       H  0.86236369  0.71948464  0.29824461     0.06470
H1600       H  0.93654686  0.80319023  0.27193132     0.06320
C1601       C  0.00545358  0.69428888  0.98758696     0.03360
C1602       C  0.96567857  0.71126362  0.98687555    -0.12790
C1603       C  0.96600014  0.74175358  0.97032575     0.00860
C1604       C  0.75744625  0.75594153  0.95777388    -0.11320
C1605       C  0.79819261  0.74085128  0.96469346     0.03350
C1606       C  0.79656173  0.70926168  0.97665612    -0.10740
H1607       H  0.93426135  0.70026117  0.99864879     0.08940
H1608       H  0.75778358  0.77892718  0.94290650     0.06470
H1609       H  0.82688495  0.69611572  0.97893261     0.06320
C1610       C  0.99135599  0.69290562  0.25985829     0.03360
C1611       C  0.95058767  0.70846134  0.26940500    -0.12790
C1612       C  0.94939302  0.74034498  0.28011300     0.00860
C1613       C  0.74061734  0.75544157  0.28501226    -0.11320
C1614       C  0.78179049  0.74053558  0.27317332     0.03350
C1615       C  0.78158655  0.70925654  0.26006956    -0.10740
H1616       H  0.92020934  0.69526403  0.26835115     0.08940
H1617       H  0.74118555  0.77888729  0.29826408     0.06470
H1618       H  0.81270718  0.69719881  0.25040444     0.06320
C1619       C  0.00252613  0.30682484  0.49774718     0.03360
C1620       C  0.79284378  0.29178628  0.50536017    -0.12790
C1621       C  0.79329077  0.26028572  0.01712499     0.00860
C1622       C  0.00203881  0.24507507  0.02666981    -0.11320
C1623       C  0.96123955  0.25922015  0.01729168     0.03350
C1624       C  0.96246467  0.28997085  0.50110251    -0.10740
H1625       H  0.82362752  0.30475773  0.50113004     0.08940
H1626       H  0.00207490  0.22209714  0.04138585     0.06470
H1627       H  0.93217367  0.30140711  0.49150724     0.06320
C1628       C  0.99749579  0.30634650  0.25938095     0.03360
C1629       C  0.78790896  0.29050101  0.26301648    -0.12790
C1630       C  0.78817732  0.25857398  0.27229334     0.00860
C1631       C  0.99667496  0.24343869  0.27971512    -0.11320
C1632       C  0.95630237  0.25822627  0.27053167     0.03350
C1633       C  0.95753739  0.28976114  0.25927303    -0.10740
H1634       H  0.81872108  0.30343557  0.25811890     0.08940
H1635       H  0.99578137  0.21997543  0.29239409     0.06470
H1636       H  0.92762777  0.30179847  0.25010206     0.06320
O1637       O  0.96212282  0.54637492  0.50049723    -0.72720
O1638       O  0.96221481  0.45480962  0.49832910    -0.73700
O1639       O  0.96253161  0.50017588  0.07393616    -0.62320
O1640       O  0.96249375  0.50072434  0.42495790    -0.70730
O1641       O  0.78695811  0.50062770  0.41915898    -0.70280
O1642       O  0.78699801  0.50020441  0.06780095    -0.61530
O1643       O  0.78648262  0.45417799  0.49249774    -0.74040
O1644       O  0.78638662  0.54689562  0.49452810    -0.72820
Cu1645     Cu  0.95979772  0.50055334  0.49965875     1.04560
Cu1646     Cu  0.78936921  0.50051001  0.49330403     1.04330
C1647       C  0.99892201  0.56124764  0.49724836     0.93480
C1648       C  0.99899874  0.43989796  0.49549459     0.92620
C1649       C  0.99982944  0.50003037  0.09426941     0.84770
C1650       C  0.99979914  0.50052898  0.39863634     0.91040
O1651       O  0.96291963  0.54590610  0.24893556    -0.72720
O1652       O  0.96354563  0.45346795  0.24993847    -0.73700
O1653       O  0.96285173  0.50033186  0.32371911    -0.62320
O1654       O  0.96285304  0.49917843  0.17506177    -0.70730
O1655       O  0.78731767  0.50013057  0.16893870    -0.70280
O1656       O  0.78732089  0.49955982  0.31792350    -0.61530
O1657       O  0.78792767  0.45364820  0.24218978    -0.74040
O1658       O  0.78732807  0.54587811  0.24480607    -0.72820
Cu1659     Cu  0.96043023  0.49969100  0.24955646     1.04560
Cu1660     Cu  0.79008458  0.49979459  0.24319016     1.04330
C1661       C  0.00014136  0.56041058  0.24762986     0.93480
C1662       C  0.00087282  0.43900469  0.24601501     0.92620
C1663       C  0.00001024  0.50011124  0.34424276     0.84770
C1664       C  0.00001926  0.49973735  0.14860326     0.91040
C1665       C  0.77121474  0.35425551  0.21528328    -0.05550
C1666       C  0.99705905  0.34038814  0.25583713     0.00370
C1667       C  0.97488669  0.35910771  0.29348683    -0.08200
C1668       C  0.97669984  0.39121013  0.28824769    -0.05570
C1669       C  0.00089069  0.40505859  0.24785195     0.00360
C1670       C  0.77377905  0.38646280  0.21071451    -0.08110
C1671       C  0.80024021  0.40048618  0.16621676     0.62270
H1672       H  0.78834969  0.33955517  0.18736141     0.12970
H1673       H  0.95950597  0.40589772  0.31616616     0.12980
C1674       C  0.95004664  0.34556709  0.33961873     0.62510
F1675       F  0.81467766  0.37837743  0.13137461    -0.22660
F1676       F  0.83752445  0.41548162  0.18190645    -0.19990
F1677       F  0.77383771  0.42125389  0.14298006    -0.19670
F1678       F  0.97588031  0.32330605  0.36017656    -0.19720
F1679       F  0.91017637  0.33263278  0.32708984    -0.20040
F1680       F  0.94013638  0.36777480  0.37592215    -0.22720
C1681       C  0.96941757  0.35656329  0.02437771    -0.05550
C1682       C  0.00086470  0.34082392  0.49218462     0.00370
C1683       C  0.78073956  0.35798576  0.45960702    -0.08200
C1684       C  0.78006962  0.39025065  0.46347997    -0.05570
C1685       C  0.99818717  0.40587284  0.49521878     0.00360
C1686       C  0.96657536  0.38873934  0.02562587    -0.08110
C1687       C  0.93032146  0.40399423  0.06004095     0.62270
H1688       H  0.94702374  0.34330015  0.04927042     0.12970
H1689       H  0.80365413  0.40349471  0.43982094     0.12980
C1690       C  0.81302456  0.34392075  0.41948207     0.62510
F1691       F  0.90788891  0.38301558  0.09121465    -0.22660
F1692       F  0.89904451  0.41774374  0.03195920    -0.19990
F1693       F  0.94899623  0.42588950  0.08976467    -0.19670
F1694       F  0.80363949  0.31350259  0.40938087    -0.19720
F1695       F  0.85624707  0.34611426  0.43424658    -0.20040
F1696       F  0.81058262  0.35989740  0.37543219    -0.22720
C1697       C  0.72780141  0.61035854  0.21388680    -0.05550
C1698       C  0.99992788  0.59430086  0.24995209     0.00370
C1699       C  0.01989058  0.61068450  0.28829100    -0.08200
C1700       C  0.01518387  0.64277453  0.29039613    -0.05570
C1701       C  0.99288141  0.65894330  0.25457538     0.00360
C1702       C  0.72490282  0.64268527  0.21466020    -0.08110
C1703       C  0.70430863  0.65915638  0.17219842     0.62270
H1704       H  0.71318198  0.59729759  0.18465442     0.12970
H1705       H  0.02940190  0.65572239  0.32002281     0.12980
C1706       C  0.04583693  0.59446561  0.32697929     0.62510
F1707       F  0.69773077  0.63937803  0.13277452    -0.22660
F1708       F  0.73236905  0.68249106  0.15445281    -0.19990
F1709       F  0.91322258  0.67146306  0.18846291    -0.19670
F1710       F  0.83445910  0.58167412  0.30420924    -0.19720
F1711       F  0.01996446  0.57149047  0.34949070    -0.20040
F1712       F  0.05814675  0.61443912  0.36395139    -0.22720
C1713       C  0.97161902  0.64429069  0.46810543    -0.05550
C1714       C  0.00288843  0.66034056  0.99508040     0.00370
C1715       C  0.78108325  0.64346605  0.02538737    -0.08200
C1716       C  0.77993942  0.61114531  0.02314527    -0.05570
C1717       C  0.99826337  0.59530591  0.49662878     0.00360
C1718       C  0.96727350  0.61220770  0.47004722    -0.08110
C1719       C  0.92975818  0.59687641  0.44353473     0.62270
H1720       H  0.95026230  0.65722393  0.44503204     0.12970
H1721       H  0.80275893  0.59808044  0.04440922     0.12980
C1722       C  0.81148533  0.65796283  0.06194421     0.62510
F1723       F  0.90710654  0.61753528  0.41553009    -0.22660
F1724       F  0.89890699  0.58429808  0.47839692    -0.19990
F1725       F  0.69683462  0.57400447  0.41167432    -0.19670
F1726       F  0.05082936  0.68831620  0.07272239    -0.19720
F1727       F  0.85553623  0.65609755  0.04261735    -0.20040
F1728       F  0.80747821  0.64220757  0.10659361    -0.22720
C1729       C  0.87023153  0.10880649  0.29431286    -0.05550
C1730       C  0.87558778  0.09435534  0.24760195     0.00370
C1731       C  0.88025354  0.11215638  0.20378360    -0.08200
C1732       C  0.87899031  0.14445648  0.20820016    -0.05570
C1733       C  0.87357106  0.15892045  0.25503561     0.00360
C1734       C  0.86951331  0.14100982  0.29887178    -0.08110
C1735       C  0.86525819  0.15593656  0.35021423     0.62270
H1736       H  0.86709131  0.09456438  0.32725375     0.12970
H1737       H  0.88215394  0.15868219  0.17525435     0.12980
C1738       C  0.88595898  0.09691354  0.15285748     0.62510
F1739       F  0.86057760  0.13426226  0.38755676    -0.22660
F1740       F  0.82801887  0.17484154  0.35473300    -0.19990
F1741       F  0.90316626  0.17319152  0.35725111    -0.19670
F1742       F  0.84826333  0.07967550  0.14474158    -0.19720
F1743       F  0.92306212  0.07785693  0.15021035    -0.20040
F1744       F  0.89207449  0.11836139  0.11535150    -0.22720
C1745       C  0.83923653  0.89189911  0.27801271    -0.05550
C1746       C  0.87552932  0.90498974  0.24967494     0.00370
C1747       C  0.90838352  0.88538346  0.22549325    -0.08200
C1748       C  0.90237678  0.85334170  0.22918047    -0.05570
C1749       C  0.86671533  0.84018913  0.25884449     0.00360
C1750       C  0.83489797  0.86002011  0.28476271    -0.08110
C1751       C  0.79619243  0.84876692  0.31992730     0.62270
H1752       H  0.81434587  0.90706413  0.29627783     0.12970
H1753       H  0.92628487  0.83814922  0.20942546     0.12980
C1754       C  0.94975841  0.89782486  0.19616685     0.62510
F1755       F  0.78231800  0.87141161  0.35411114    -0.22660
F1756       F  0.80830310  0.82361764  0.34701804    -0.19990
F1757       F  0.76018102  0.84124248  0.29279522    -0.19670
F1758       F  0.97703148  0.91251327  0.22828861    -0.19720
F1759       F  0.93739111  0.91830021  0.16056943    -0.20040
F1760       F  0.97473843  0.87468031  0.17188069    -0.22720
C1761       C  0.91089303  0.14474820  0.47765124    -0.05550
C1762       C  0.87545700  0.15951781  0.00566341     0.00370
C1763       C  0.84150049  0.14113892  0.03071203    -0.08200
C1764       C  0.84317633  0.10910870  0.02394499    -0.05570
C1765       C  0.87948966  0.09437639  0.99781978     0.00360
C1766       C  0.91450390  0.11251829  0.47462548    -0.08110
C1767       C  0.95525182  0.09834081  0.44604018     0.62270
H1768       H  0.93616351  0.15872755  0.45796926     0.12970
H1769       H  0.81665370  0.09513117  0.04153681     0.12980
C1770       C  0.80441705  0.15393429  0.06687630     0.62510
F1771       F  0.98223178  0.12030909  0.42196121    -0.22660
F1772       F  0.94170713  0.07800748  0.41029068    -0.19990
F1773       F  0.98104668  0.08304064  0.97868934    -0.19670
F1774       F  0.76801023  0.16210967  0.54101226    -0.19720
F1775       F  0.81905208  0.17899830  0.09314749    -0.20040
F1776       F  0.79011904  0.13215152  0.10179508    -0.22720
C1777       C  0.89583161  0.89154433  0.44907698    -0.05550
C1778       C  0.87526428  0.90513797  0.49225414     0.00370
C1779       C  0.85695919  0.88642921  0.03151621    -0.08200
C1780       C  0.85976894  0.85425663  0.02588160    -0.05570
C1781       C  0.88046057  0.84071483  0.48261353     0.00360
C1782       C  0.89854260  0.85949437  0.44330338    -0.08110
C1783       C  0.92022266  0.84582943  0.39524885     0.62270
H1784       H  0.90981753  0.90637291  0.41974841     0.12970
H1785       H  0.84589686  0.83939197  0.05519903     0.12980
C1786       C  0.83563887  0.90045080  0.07938773     0.62510
F1787       F  0.92877300  0.86799661  0.35913913    -0.22660
F1788       F  0.89228111  0.82408329  0.37633002    -0.19990
F1789       F  0.96039978  0.83207119  0.40438378    -0.19670
F1790       F  0.79729501  0.91633035  0.06947338    -0.19720
F1791       F  0.86539986  0.92049319  0.09963385    -0.20040
F1792       F  0.82393229  0.87827336  0.11462250    -0.22720
O1793       O  0.83837014  0.95373150  0.99924523    -0.72720
O1794       O  0.84135826  0.04605784  0.99918780    -0.73700
O1795       O  0.83951588  0.99979448  0.92483537    -0.62320
O1796       O  0.83965799  0.00016437  0.57356873    -0.70730
O1797       O  0.91409849  0.99870393  0.56754090    -0.70280
O1798       O  0.91398500  0.99953240  0.91866310    -0.61530
O1799       O  0.91550401  0.04503952  0.49413849    -0.74040
O1800       O  0.91280838  0.95310213  0.49169280    -0.72820
Cu1801     Cu  0.83710076  0.99996143  0.99944461     1.04560
Cu1802     Cu  0.91668446  0.99904557  0.49284581     1.04330
C1803       C  0.87533498  0.93890967  0.99517327     0.93480
C1804       C  0.87894821  0.06023947  0.49651853     0.92620
C1805       C  0.87670049  0.99982333  0.89834287     0.84770
C1806       C  0.87686559  0.99943868  0.59396447     0.91040
O1807       O  0.83969637  0.95393560  0.74903073    -0.72720
O1808       O  0.83890027  0.04600780  0.74938263    -0.73700
O1809       O  0.83949942  0.99972726  0.67467110    -0.62320
O1810       O  0.83934956  0.00009778  0.82358496    -0.70730
O1811       O  0.91382116  0.00030595  0.81756047    -0.70280
O1812       O  0.91397102  0.99944705  0.66879927    -0.61530
O1813       O  0.91340704  0.04618485  0.74300456    -0.74040
O1814       O  0.91389164  0.95367432  0.74358527    -0.72820
Cu1815     Cu  0.83677457  0.99993946  0.74931039     1.04560
Cu1816     Cu  0.91639771  0.99992789  0.74297399     1.04330
C1817       C  0.87671910  0.93912582  0.74669101     0.93480
C1818       C  0.87602977  0.06055800  0.74617896     0.92620
C1819       C  0.87677899  0.99951423  0.64832599     0.84770
C1820       C  0.87660554  0.00012275  0.84398443     0.91040
C1821       C  0.87641398  0.19391598  0.50931958     0.03360
C1822       C  0.83747713  0.21130772  0.50537011    -0.12790
C1823       C  0.83629379  0.24284703  0.51736203     0.00860
C1824       C  0.87669933  0.25755361  0.52673917    -0.11320
C1825       C  0.91786764  0.24180220  0.52083000     0.03350
C1826       C  0.91688632  0.20958165  0.51506756    -0.10740
H1827       H  0.80799707  0.20004195  0.49319929     0.08860
H1828       H  0.87634512  0.28143693  0.53791249     0.06470
H1829       H  0.94753153  0.19648993  0.51382340     0.06320
C1830       C  0.87314143  0.19286825  0.75783878     0.03360
C1831       C  0.83253464  0.20896416  0.76079532    -0.12790
C1832       C  0.83123190  0.24079356  0.77159617     0.00860
C1833       C  0.87190405  0.25573214  0.77933001    -0.11320
C1834       C  0.91338811  0.24063133  0.77049142     0.03350
C1835       C  0.91338987  0.20888906  0.75987903    -0.10740
H1836       H  0.80237158  0.19619375  0.75476805     0.08940
H1837       H  0.87140266  0.27925352  0.79227671     0.06470
H1838       H  0.94434814  0.19618270  0.75331820     0.06320
C1839       C  0.88101094  0.80676509  0.97823379     0.03360
C1840       C  0.84106119  0.79068079  0.47333816    -0.12790
C1841       C  0.84133705  0.75867428  0.46397942     0.00860
C1842       C  0.88319098  0.74364219  0.45861476    -0.11320
C1843       C  0.92309263  0.75904298  0.46838110     0.03350
C1844       C  0.92136942  0.79073656  0.47854042    -0.10740
H1845       H  0.81008760  0.80351738  0.47771864     0.08940
H1846       H  0.88503594  0.71977770  0.44740114     0.06470
H1847       H  0.95124239  0.80318503  0.48708084     0.06320
C1848       C  0.86616507  0.80599406  0.76455356     0.03360
C1849       C  0.82683856  0.78899205  0.76056648    -0.12790
C1850       C  0.82484633  0.75779084  0.77363933     0.00860
C1851       C  0.86436400  0.74298697  0.78580237    -0.11320
C1852       C  0.90606158  0.75813949  0.78129470     0.03350
C1853       C  0.90587790  0.79015799  0.77296729    -0.10740
H1854       H  0.79767261  0.80021115  0.74767992     0.08940
H1855       H  0.86236666  0.71949082  0.79827192     0.06470
H1856       H  0.93655127  0.80319213  0.77191998     0.06320
C1857       C  0.00544987  0.69432659  0.48758898     0.03360
C1858       C  0.96567463  0.71130103  0.48687693    -0.12790
C1859       C  0.96599602  0.74179117  0.47032789     0.00860
C1860       C  0.75744205  0.75597933  0.45777631    -0.11320
C1861       C  0.79818852  0.74088919  0.46469586     0.03350
C1862       C  0.79655786  0.70929971  0.47665909    -0.10740
H1863       H  0.93425745  0.70029824  0.49864927     0.08940
H1864       H  0.75777918  0.77896501  0.44290907     0.06470
H1865       H  0.82688118  0.69615400  0.47893610     0.06320
C1866       C  0.99135759  0.69290579  0.75989335     0.03360
C1867       C  0.95058973  0.70846305  0.76943394    -0.12790
C1868       C  0.94939599  0.74034814  0.78013015     0.00860
C1869       C  0.74062065  0.75544522  0.78502435    -0.11320
C1870       C  0.78179348  0.74053719  0.77319220     0.03350
C1871       C  0.78158874  0.70925624  0.76010086    -0.10740
H1872       H  0.92021089  0.69526599  0.76838272     0.08940
H1873       H  0.74118920  0.77889307  0.79826615     0.06470
H1874       H  0.81270906  0.69719720  0.75043987     0.06320
C1875       C  0.00252598  0.30678717  0.99777813     0.03360
C1876       C  0.79284373  0.29174829  0.00538921    -0.12790
C1877       C  0.79329090  0.26032363  0.51709594     0.00860
C1878       C  0.00203879  0.24511318  0.52664023    -0.11320
C1879       C  0.96123997  0.25925785  0.51725946     0.03350
C1880       C  0.96246398  0.28993366  0.00113670    -0.10740
H1881       H  0.82362788  0.30471919  0.00115694     0.08940
H1882       H  0.00207424  0.22213584  0.54135851     0.06470
H1883       H  0.93217267  0.30137028  0.99154336     0.06320
C1884       C  0.99749361  0.30634727  0.75936283     0.03360
C1885       C  0.78790656  0.29050241  0.76300324    -0.12790
C1886       C  0.78817435  0.25857647  0.77228975     0.00860
C1887       C  0.99667170  0.24344199  0.77971600    -0.11320
C1888       C  0.95629939  0.25822837  0.77052787     0.03350
C1889       C  0.95753505  0.28976179  0.75925915    -0.10740
H1890       H  0.81871880  0.30343663  0.75810282     0.08940
H1891       H  0.99577764  0.21998029  0.79240247     0.06470
H1892       H  0.92762551  0.30179817  0.75008523     0.06320
O1893       O  0.96212372  0.54633777  0.00049652    -0.72720
O1894       O  0.96221641  0.45477229  0.99833132    -0.73700
O1895       O  0.96253038  0.50021068  0.57393624    -0.62320
O1896       O  0.96249479  0.50068845  0.92495810    -0.70730
O1897       O  0.78695913  0.50059179  0.91915881    -0.70280
O1898       O  0.78699675  0.50023908  0.56780106    -0.61530
O1899       O  0.78648419  0.45414087  0.99249977    -0.74040
O1900       O  0.78638756  0.54685851  0.99452685    -0.72820
Cu1901     Cu  0.95979891  0.50051648  0.99965895     1.04560
Cu1902     Cu  0.78937042  0.50047327  0.99330397     1.04330
C1903       C  0.99892290  0.56121042  0.99724734     0.93480
C1904       C  0.99900044  0.43986065  0.99549894     0.92620
C1905       C  0.99982821  0.50006193  0.59426948     0.84770
C1906       C  0.99980006  0.50049657  0.89863632     0.91040
O1907       O  0.96292009  0.54590653  0.74895826    -0.72720
O1908       O  0.96354433  0.45346865  0.74991644    -0.73700
O1909       O  0.96285222  0.50031705  0.82371943    -0.62320
O1910       O  0.96285216  0.49919418  0.67506164    -0.70730
O1911       O  0.78731677  0.50014617  0.66893861    -0.70280
O1912       O  0.78732134  0.49954401  0.81792285    -0.61530
O1913       O  0.78792640  0.45364793  0.74216650    -0.74040
O1914       O  0.78732854  0.54587825  0.74482930    -0.72820
Cu1915     Cu  0.96042999  0.49969158  0.74955662     1.04560
Cu1916     Cu  0.79008434  0.49979452  0.74318982     1.04330
C1917       C  0.00014178  0.56041079  0.74765760     0.93480
C1918       C  0.00087099  0.43900490  0.74598861     0.92620
C1919       C  0.00001086  0.50009011  0.84424263     0.84770
C1920       C  0.00001822  0.49975853  0.64860321     0.91040
C1921       C  0.77120991  0.35425491  0.71525819    -0.05550
C1922       C  0.99705641  0.34038867  0.75581483     0.00370
C1923       C  0.97488598  0.35910926  0.79346442    -0.08200
C1924       C  0.97669852  0.39121137  0.78822241    -0.05570
C1925       C  0.00088719  0.40505881  0.74782417     0.00360
C1926       C  0.77377391  0.38646218  0.71068687    -0.08110
C1927       C  0.80023332  0.40048475  0.66618735     0.62270
H1928       H  0.78834374  0.33955379  0.68733664     0.12970
H1929       H  0.95950653  0.40589966  0.81614125     0.12980
C1930       C  0.95004953  0.34556991  0.83959974     0.62510
F1931       F  0.81466975  0.37837528  0.63134595    -0.22660
F1932       F  0.83751799  0.41548085  0.68187454    -0.19990
F1933       F  0.77382966  0.42125182  0.64295089    -0.19670
F1934       F  0.97588722  0.32331173  0.86015905    -0.19720
F1935       F  0.91018008  0.33263238  0.82707527    -0.20040
F1936       F  0.94013789  0.36777898  0.87590060    -0.22720
C1937       C  0.96941389  0.35659864  0.52435263    -0.05550
C1938       C  0.00086585  0.34078602  0.99221035     0.00370
C1939       C  0.78073921  0.35794524  0.95962699    -0.08200
C1940       C  0.78006974  0.39021053  0.96349275    -0.05570
C1941       C  0.99818901  0.40583532  0.99523022     0.00360
C1942       C  0.96657108  0.38877456  0.52560732    -0.08110
C1943       C  0.93031355  0.40402675  0.56002107     0.62270
H1944       H  0.94701863  0.34333359  0.54924085     0.12970
H1945       H  0.80365307  0.40345272  0.93982935     0.12980
C1946       C  0.81302177  0.34387631  0.91950326     0.62510
F1947       F  0.90787823  0.38304560  0.59118770    -0.22660
F1948       F  0.89903959  0.41777832  0.53193775    -0.19990
F1949       F  0.94898445  0.42591986  0.58975200    -0.19670
F1950       F  0.80362859  0.31345913  0.90940357    -0.19720
F1951       F  0.85624468  0.34606496  0.93426826    -0.20040
F1952       F  0.81058484  0.35985259  0.87545227    -0.22720
C1953       C  0.72780138  0.61035955  0.71392059    -0.05550
C1954       C  0.99992764  0.59430094  0.74998490     0.00370
C1955       C  0.01989053  0.61068354  0.78832466    -0.08200
C1956       C  0.01518347  0.64277371  0.79043202    -0.05570
C1957       C  0.99288138  0.65894335  0.75461169     0.00360
C1958       C  0.72490344  0.64268616  0.71469524    -0.08110
C1959       C  0.70431132  0.65915801  0.67223270     0.62270
H1960       H  0.71318226  0.59729934  0.68468716     0.12970
H1961       H  0.02940192  0.65572095  0.82005911     0.12980
C1962       C  0.04583907  0.59446348  0.82700977     0.62510
F1963       F  0.69773496  0.63938023  0.63280763    -0.22660
F1964       F  0.73237268  0.68249272  0.65448910    -0.19990
F1965       F  0.91322479  0.67146468  0.68849535    -0.19670
F1966       F  0.83446181  0.58167465  0.80423656    -0.19720
F1967       F  0.01996944  0.57148591  0.84951843    -0.20040
F1968       F  0.05814793  0.61443558  0.86398426    -0.22720
C1969       C  0.97162026  0.64425339  0.96810559    -0.05550
C1970       C  0.00288544  0.66037818  0.49508199     0.00370
C1971       C  0.78107979  0.64350399  0.52538990    -0.08200
C1972       C  0.77993674  0.61118313  0.52314791    -0.05570
C1973       C  0.99826444  0.59526851  0.99662795     0.00360
C1974       C  0.96727334  0.61217052  0.97004858    -0.08110
C1975       C  0.92975461  0.59683974  0.94354081     0.62270
H1976       H  0.95026299  0.65718676  0.94503303     0.12970
H1977       H  0.80275576  0.59811850  0.54441279     0.12980
C1978       C  0.81148084  0.65800176  0.56194685     0.62510
F1979       F  0.90710140  0.61749883  0.91553819    -0.22660
F1980       F  0.89890567  0.58426261  0.97840670    -0.19990
F1981       F  0.69682677  0.57396688  0.91167954    -0.19670
F1982       F  0.05081874  0.68835373  0.57272930    -0.19720
F1983       F  0.85553137  0.65614140  0.54261735    -0.20040
F1984       F  0.80747922  0.64224428  0.60659432    -0.22720
C1985       C  0.87023411  0.10880833  0.79433741    -0.05550
C1986       C  0.87558436  0.09435601  0.74762705     0.00370
C1987       C  0.88024045  0.11215600  0.70380692    -0.08200
C1988       C  0.87897790  0.14445608  0.70822139    -0.05570
C1989       C  0.87356606  0.15892127  0.75505609     0.00360
C1990       C  0.86951367  0.14101190  0.79889379    -0.08110
C1991       C  0.86525997  0.15594032  0.85023485     0.62270
H1992       H  0.86709927  0.09456709  0.82727949     0.12970
H1993       H  0.88213571  0.15868092  0.67527434     0.12980
C1994       C  0.88593445  0.09691210  0.65288084     0.62510
F1995       F  0.86057986  0.13426717  0.88757908    -0.22660
F1996       F  0.82802073  0.17484543  0.85475297    -0.19990
F1997       F  0.90316831  0.17319554  0.85726918    -0.19670
F1998       F  0.84823657  0.07967351  0.64477683    -0.19720
F1999       F  0.92303822  0.07785595  0.65022402    -0.20040
F2000       F  0.89204030  0.11835915  0.61537248    -0.22720
C2001       C  0.83923511  0.89189969  0.77798493    -0.05550
C2002       C  0.87552821  0.90498968  0.74964687     0.00370
C2003       C  0.90838353  0.88538282  0.72546867    -0.08200
C2004       C  0.90237833  0.85334099  0.72916096    -0.05570
C2005       C  0.86671701  0.84018925  0.75882650     0.00360
C2006       C  0.83489772  0.86002113  0.78474001    -0.08110
C2007       C  0.79619154  0.84876953  0.81990553     0.62270
H2008       H  0.81434359  0.90706509  0.79624749     0.12970
H2009       H  0.92628790  0.83814794  0.70940957     0.12980
C2010       C  0.94975827  0.89782373  0.69614156     0.62510
F2011       F  0.78231212  0.87141685  0.85408251    -0.22660
F2012       F  0.80830386  0.82362419  0.84700427    -0.19990
F2013       F  0.76018253  0.84123996  0.79277312    -0.19670
F2014       F  0.97703122  0.91251315  0.72826229    -0.19720
F2015       F  0.93739077  0.91829812  0.66054285    -0.20040
F2016       F  0.97473833  0.87467866  0.67185688    -0.22720
C2017       C  0.91089575  0.14471249  0.97766842    -0.05550
C2018       C  0.87545716  0.15955500  0.50564849     0.00370
C2019       C  0.84150426  0.14117759  0.53070633    -0.08200
C2020       C  0.84317900  0.10914692  0.52394411    -0.05570
C2021       C  0.87948949  0.09441315  0.49781586     0.00360
C2022       C  0.91450619  0.11248274  0.97463655    -0.08110
C2023       C  0.95525610  0.09830679  0.94605270     0.62270
H2024       H  0.93616840  0.15869283  0.95799217     0.12970
H2025       H  0.81665833  0.09517032  0.54154210     0.12980
C2026       C  0.80442538  0.15397566  0.56687377     0.62510
F2027       F  0.98223754  0.12027640  0.92197933    -0.22660
F2028       F  0.94171424  0.07797553  0.91029867    -0.19990
F2029       F  0.98104481  0.08307661  0.47867667    -0.19670
F2030       F  0.76800512  0.16206923  0.04101025    -0.19720
F2031       F  0.81906490  0.17904116  0.59313812    -0.20040
F2032       F  0.79013082  0.13219522  0.60179798    -0.22720
C2033       C  0.89583335  0.89150691  0.94907371    -0.05550
C2034       C  0.87526906  0.90510072  0.99225249     0.00370
C2035       C  0.85695141  0.88646661  0.53151640    -0.08200
C2036       C  0.85976181  0.85429410  0.52588206    -0.05570
C2037       C  0.88046453  0.84067729  0.98261152     0.00360
C2038       C  0.89854390  0.85945683  0.94330005    -0.08110
C2039       C  0.92022034  0.84579159  0.89524395     0.62270
H2040       H  0.90981721  0.90633540  0.91974395     0.12970
H2041       H  0.84588757  0.83942944  0.55519836     0.12980
C2042       C  0.83562684  0.90048830  0.57938584     0.62510
F2043       F  0.92876620  0.86795838  0.85913267    -0.22660
F2044       F  0.89227767  0.82404451  0.87632949    -0.19990
F2045       F  0.96039937  0.83203438  0.90437461    -0.19670
F2046       F  0.79728320  0.91636679  0.56946724    -0.19720
F2047       F  0.86538494  0.92053172  0.59963456    -0.20040
F2048       F  0.82391869  0.87831099  0.61462027    -0.22720
loop_ 
_geom_bond_atom_site_label_1 
_geom_bond_atom_site_label_2 
_geom_bond_distance 
_geom_bond_site_symmetry_2 
_ccdc_geom_bond_type 
O1           Cu9   2.011       .  S
O1           C11   1.277       .  A
O2           Cu9   2.009   1_545  S
O2          C268   1.279       .  A
O3           Cu9   2.003       .  S
O3           C13   1.277       .  A
O4         Cu265   2.000   1_544  S
O4           C14   1.276   1_545  A
O5          Cu10   2.005   1_554  S
O5           C14   1.277       .  A
O6         Cu266   2.003       .  S
O6           C13   1.277       .  A
O7          Cu10   2.001   1_545  S
O7           C12   1.275       .  A
O8          Cu10   2.002       .  S
O8          C267   1.277       .  A
Cu9         O260   2.000   1_565  S
Cu9        Cu266   2.375       .  S
Cu10        O262   2.003       .  S
Cu10       Cu265   2.375       .  S
C11         O264   1.277       .  A
C11         C242   1.472       .  S
C12         O258   1.279       .  A
C12         C229   1.487       .  S
C13          C28   1.462   1_565  S
C14          C27   1.462       .  S
O15         Cu23   2.003       .  S
O15          C25   1.278       .  A
O16         Cu23   2.005   1_545  S
O16          C26   1.276       .  A
O17         Cu23   2.003       .  S
O17          C27   1.277       .  A
O18         Cu23   2.005   1_545  S
O18          C28   1.277       .  A
O19         Cu24   2.002   1_545  S
O19          C28   1.277       .  A
O20         Cu24   2.001       .  S
O20          C27   1.277       .  A
O21         Cu24   2.014   1_545  S
O21          C26   1.278       .  A
O22         Cu24   2.013       .  S
O22          C25   1.277       .  A
Cu23        Cu24   2.375       .  S
C25         C210   1.488       .  S
C26         C194   1.470       .  S
C29         C226   1.497       .  S
C29          C30   1.400       .  A
C29          C34   1.407       .  A
C30          C31   1.407       .  A
C30          H35   1.079   1_554  S
C31          C85   1.495       .  S
C31          C32   1.405       .  A
C32          C33   1.407       .  A
C32          H36   1.079       .  S
C33          C87   1.501       .  S
C33          C34   1.409       .  A
C34          H37   1.077       .  S
C38         C197   1.478       .  S
C38          C39   1.399       .  A
C38          C43   1.395       .  A
C39          C40   1.412       .  A
C39          H44   1.081       .  S
C40          C94   1.501       .  S
C40          C41   1.407       .  A
C41          C42   1.408       .  A
C41          H45   1.078       .  S
C42          C96   1.495       .  S
C42          C43   1.408       .  A
C43          H46   1.081       .  S
C47         C245   1.479       .  S
C47         C304   1.399       .  A
C47         C308   1.395       .  A
C48          C49   1.413       .  A
C48         C303   1.399       .  A
C48          H53   1.080       .  S
C49          C69   1.504       .  S
C49          C50   1.410       .  A
C50          C51   1.409       .  A
C50          H54   1.079       .  S
C51          C67   1.491       .  S
C51          C52   1.403       .  A
C52         C303   1.395       .  A
C52          H55   1.083       .  S
C56         C213   1.496       .  S
C56          C57   1.400       .  A
C56          C61   1.406       .  A
C57          C58   1.405       .  A
C57          H62   1.080       .  S
C58          C78   1.491       .  S
C58          C59   1.406       .  A
C59          C60   1.409       .  A
C59          H63   1.078       .  S
C60          C76   1.508       .  S
C60          C61   1.412       .  A
C61          H64   1.077       .  S
C65         C178   1.493       .  S
C65          C66   1.402       .  A
C65         C582   1.405       .  A
C66          C67   1.402       .  A
C66          H71   1.082       .  S
C67         C580   1.405       .  A
C68          C69   1.409       .  A
C68        C1603   1.405   1_455  A
C68          H72   1.079       .  S
C69          C70   1.414       .  A
C70        C1601   1.405       .  A
C70          H73   1.078       .  S
C74         C165   1.483       .  S
C74          C75   1.401       .  A
C74         C591   1.398       .  A
C75          C76   1.414       .  A
C75          H80   1.077       .  S
C76         C589   1.411       .  A
C77          C78   1.406   1_655  A
C77        C1612   1.411       .  A
C77          H81   1.078       .  S
C78          C79   1.403       .  A
C79        C1610   1.398   1_455  A
C79          H82   1.082       .  S
C83         C146   1.489       .  S
C83          C88   1.403       .  A
C83         C596   1.401       .  A
C84        C1619   1.401       .  A
C84         C341   1.407       .  A
C84          H89   1.079       .  S
C85         C340   1.407       .  A
C85        C1622   1.408       .  A
C86          C87   1.407       .  A
C86         C597   1.408       .  A
C86          H90   1.078       .  S
C87         C344   1.408       .  A
C88         C343   1.408       .  A
C88          H91   1.082       .  S
C92         C130   1.485       .  S
C92          C97   1.396       .  A
C92         C605   1.401       .  A
C93          C94   1.413       .  A
C93        C1628   1.401   1_455  A
C93          H98   1.080       .  S
C94        C1631   1.407   1_455  A
C95          C96   1.407       .  A
C95         C606   1.407       .  A
C95          H99   1.078       .  S
C96          C97   1.407       .  A
C97         H100   1.081       .  S
O101       Cu109   1.994       .  S
O101        C111   1.275       .  A
O102       Cu109   1.991       .  S
O102        C112   1.274       .  A
O103       Cu365   2.005   1_554  S
O103        C113   1.278       .  A
O104       Cu109   2.005       .  S
O104        C114   1.277       .  A
O105       Cu110   2.001       .  S
O105       C1650   1.276   1_455  A
O106       Cu366   2.000   1_554  S
O106       C1649   1.276   1_455  A
O107       Cu110   2.017       .  S
O107       C1648   1.280   1_455  A
O108       Cu110   2.019       .  S
O108       C1647   1.280   1_455  A
Cu109       O359   2.005       .  S
Cu109      Cu622   2.374       .  S
Cu110       O362   2.000       .  S
Cu110     Cu1645   2.374   1_455  S
C111        O620   1.280       .  A
C111        C181   1.482       .  S
C112        O619   1.280       .  A
C112        C149   1.480       .  S
C113        O618   1.276       .  A
C113        C128   1.462       .  S
C114        O617   1.276       .  A
C114        C127   1.462       .  S
O115       Cu123   2.012       .  S
O115        C125   1.278       .  A
O116       Cu123   2.013       .  S
O116        C126   1.279       .  A
O117       Cu123   2.001       .  S
O117        C127   1.276       .  A
O118       Cu123   1.999       .  S
O118        C128   1.276       .  A
O119       Cu124   2.005       .  S
O119       C1664   1.278       .  A
O120       Cu124   2.006       .  S
O120       C1663   1.278       .  A
O121       Cu124   2.008       .  S
O121       C1662   1.276       .  A
O122       Cu124   2.006       .  S
O122       C1661   1.276       .  A
Cu123      Cu636   2.376       .  S
Cu124     Cu1659   2.376   1_455  S
C125        O634   1.276       .  A
C125        C162   1.475       .  S
C126        O633   1.276       .  A
C126        C133   1.478       .  S
C127        O632   1.278       .  A
C128        O631   1.278       .  A
C129        C134   1.409       .  A
C129       C1666   1.404   1_455  A
C129        H136   1.083       .  S
C130        C131   1.420       .  A
C130        C641   1.404       .  A
C131        C132   1.405       .  A
C131        C138   1.522       .  S
C132        C133   1.401       .  A
C132        H137   1.083       .  S
C133        C646   1.417       .  A
C134       C1669   1.417       .  A
C134        C135   1.518       .  S
C135        F139   1.384       .  S
C135        F140   1.382       .  S
C135        F141   1.382       .  S
C138        F142   1.382       .  S
C138        F143   1.381       .  S
C138        F144   1.385       .  S
C145        C150   1.402       .  A
C145        C402   1.406   1_554  A
C145        H152   1.082       .  S
C146        C401   1.406       .  A
C146        C659   1.421       .  A
C147        C148   1.406       .  A
C147       C1682   1.421       .  A
C147        C154   1.520       .  S
C148       C1685   1.404   1_455  A
C148        H153   1.084       .  S
C149        C660   1.404       .  A
C149        C406   1.419       .  A
C150        C405   1.419   1_554  A
C150        C151   1.522       .  S
C151        F155   1.384       .  S
C151        F156   1.383       .  S
C151        F157   1.382       .  S
C154        F158   1.382       .  S
C154        F159   1.383       .  S
C154        F160   1.385       .  S
C161        C166   1.409       .  A
C161       C1698   1.404       .  A
C161        H168   1.084       .  S
C162        C163   1.416       .  A
C162        C673   1.404       .  A
C163        C164   1.403       .  A
C163        C170   1.520       .  S
C164        C165   1.404       .  A
C164        H169   1.084       .  S
C165        C678   1.419       .  A
C166       C1701   1.419       .  A
C166        C167   1.520       .  S
C167        F171   1.385       .  S
C167        F172   1.383       .  S
C167       F1709   1.381       .  S
C170        F175   1.381       .  S
C170        F176   1.385       .  S
C170        F686   1.382       .  S
F173        C679   1.381       .  S
F174       C1706   1.382       .  S
C177        C182   1.403       .  A
C177        C434   1.408       .  A
C177        H184   1.083       .  S
C178        C433   1.408       .  A
C178        C691   1.422   1_556  A
C179        C180   1.407       .  A
C179       C1714   1.422   1_554  A
C179        C186   1.520       .  S
C180       C1973   1.405   1_454  A
C180        H185   1.085       .  S
C181        C182   1.420       .  A
C181        C948   1.405       .  A
C182        C183   1.523       .  S
C183        F187   1.385       .  S
C183        F188   1.383       .  S
C183        F701   1.381       .  S
C186        F191   1.383       .  S
C186        F192   1.385       .  S
C186       F1726   1.382       .  S
F189       C1719   1.381       .  S
F190        C698   1.382       .  S
C193        C194   1.399       .  A
C193        C198   1.405       .  A
C193        H200   1.084       .  S
C194        C195   1.414       .  A
C195        C196   1.409       .  A
C195        C202   1.515       .  S
C196        C197   1.402       .  A
C196        H201   1.083       .  S
C197        C198   1.416       .  A
C198        C199   1.518       .  S
C199        F203   1.383       .  S
C199        F204   1.382       .  S
C199        F205   1.383       .  S
C202        F206   1.384       .  S
C202        F207   1.382       .  S
C202        F208   1.382       .  S
C209        C210   1.404       .  A
C209        C214   1.405       .  A
C209        H216   1.083       .  S
C210        C211   1.419       .  A
C211        C212   1.409       .  A
C211        C218   1.520       .  S
C212        C213   1.409       .  A
C212        H217   1.081       .  S
C213        C214   1.425       .  A
C214        C215   1.524       .  S
C215        F219   1.385       .  S
C215        F220   1.382       .  S
C215        F221   1.382       .  S
C218        F222   1.383       .  S
C218        F223   1.382       .  S
C218        F224   1.385       .  S
C225        C230   1.407       .  A
C225        C482   1.408       .  A
C225        H232   1.081       .  S
C226        C227   1.426       .  A
C226        C481   1.408   1_554  A
C227        C228   1.404       .  A
C227        C234   1.523       .  S
C228        C229   1.402   1_554  A
C228        H233   1.083       .  S
C229        C486   1.421       .  A
C230        C485   1.421       .  A
C230        C231   1.521       .  S
C231        F235   1.385       .  S
C231        F236   1.383       .  S
C231        F493   1.383       .  S
C234        F239   1.383       .  S
C234        F240   1.385       .  S
C234        F494   1.382       .  S
F237        C487   1.383       .  S
F238        C490   1.382       .  S
C241        C242   1.401       .  A
C241        C246   1.403       .  A
C241        H248   1.083       .  S
C242        C499   1.416       .  A
C243        C244   1.408       .  A
C243        C498   1.416   1_554  A
C243        C250   1.518       .  S
C244        C501   1.404   1_554  A
C244        H249   1.083       .  S
C245        C246   1.417       .  A
C245        C500   1.404       .  A
C246        C247   1.520       .  S
C247        F251   1.385       .  S
C247        F252   1.381       .  S
C247        F253   1.381       .  S
C250        F254   1.382       .  S
C250        F255   1.383       .  S
C250        F256   1.385       .  S
O257       Cu265   2.011       .  S
O257        C267   1.277       .  A
O258       Cu265   2.009   1_545  S
O259       Cu265   2.003       .  S
O259        C269   1.277       .  A
O260        C270   1.276   1_545  A
O261       Cu266   2.005       .  S
O261        C270   1.277       .  A
O262        C269   1.277       .  A
O263       Cu266   2.001   1_545  S
O263        C268   1.275       .  A
O264       Cu266   2.002       .  S
C267        C498   1.472       .  S
C268        C485   1.487       .  S
C269        C284   1.462   1_565  S
C270        C283   1.462       .  S
O271       Cu279   2.003       .  S
O271        C281   1.278       .  A
O272       Cu279   2.005   1_545  S
O272        C282   1.276       .  A
O273       Cu279   2.003       .  S
O273        C283   1.277       .  A
O274       Cu279   2.005   1_545  S
O274        C284   1.277       .  A
O275       Cu280   2.002   1_545  S
O275        C284   1.277       .  A
O276       Cu280   2.001       .  S
O276        C283   1.277       .  A
O277       Cu280   2.014   1_545  S
O277        C282   1.278       .  A
O278       Cu280   2.013       .  S
O278        C281   1.277       .  A
Cu279      Cu280   2.375       .  S
C281        C466   1.488       .  S
C282        C450   1.470       .  S
C285        C482   1.497       .  S
C285        C286   1.400       .  A
C285        C290   1.407       .  A
C286        C287   1.407       .  A
C286        H291   1.079       .  S
C287        C341   1.495       .  S
C287        C288   1.405       .  A
C288        C289   1.407       .  A
C288        H292   1.079       .  S
C289        C343   1.501       .  S
C289        C290   1.409       .  A
C290        H293   1.077       .  S
C294        C453   1.478       .  S
C294        C295   1.399       .  A
C294        C299   1.395       .  A
C295        C296   1.412       .  A
C295        H300   1.081       .  S
C296        C350   1.501       .  S
C296        C297   1.407       .  A
C297        C298   1.408       .  A
C297        H301   1.078       .  S
C298        C352   1.495       .  S
C298        C299   1.408       .  A
C299        H302   1.081       .  S
C303        C501   1.479       .  S
C304        C305   1.413       .  A
C304        H309   1.080       .  S
C305        C325   1.504       .  S
C305        C306   1.410       .  A
C306        C307   1.409       .  A
C306        H310   1.079       .  S
C307        C323   1.491       .  S
C307        C308   1.403       .  A
C308        H311   1.083       .  S
C312        C469   1.496       .  S
C312        C313   1.400       .  A
C312        C317   1.406       .  A
C313        C314   1.405       .  A
C313        H318   1.080       .  S
C314        C334   1.491       .  S
C314        C315   1.406       .  A
C315        C316   1.409       .  A
C315        H319   1.078       .  S
C316        C332   1.508       .  S
C316        C317   1.412       .  A
C317        H320   1.077       .  S
C321        C434   1.493       .  S
C321        C322   1.402       .  A
C321        C838   1.405       .  A
C322        C323   1.402       .  A
C322        H327   1.082       .  S
C323        C836   1.405       .  A
C324       C1859   1.405   1_455  A
C324        C325   1.409       .  A
C324        H328   1.079       .  S
C325        C326   1.414       .  A
C326       C1857   1.405       .  A
C326        H329   1.078       .  S
C330        C421   1.483       .  S
C330        C331   1.401       .  A
C330        C847   1.398       .  A
C331        C332   1.414       .  A
C331        H336   1.077       .  S
C332        C845   1.411       .  A
C333       C1868   1.411       .  A
C333        C334   1.406   1_655  A
C333        H337   1.078       .  S
C334        C335   1.403       .  A
C335       C1866   1.398   1_455  A
C335        H338   1.082       .  S
C339        C402   1.489       .  S
C339        C852   1.401   1_556  A
C339        C344   1.403   1_556  A
C340       C1875   1.401   1_554  A
C340        H345   1.079       .  S
C341       C1878   1.408       .  A
C342        C853   1.408       .  A
C342        C343   1.407       .  A
C342        H346   1.078       .  S
C344        H347   1.082   1_554  S
C348        C386   1.485       .  S
C348        C861   1.401       .  A
C348        C353   1.396       .  A
C349       C1884   1.401   1_455  A
C349        C350   1.413       .  A
C349        H354   1.080       .  S
C350       C1887   1.407   1_455  A
C351        C862   1.407       .  A
C351        C352   1.407       .  A
C351        H355   1.078       .  S
C352        C353   1.407       .  A
C353        H356   1.081       .  S
O357       Cu365   1.994   1_554  S
O357        C367   1.275   1_554  A
O358       Cu365   1.991       .  S
O358        C368   1.274       .  A
O359        C369   1.278       .  A
O360       Cu365   2.005       .  S
O360        C370   1.277       .  A
O361       Cu366   2.001       .  S
O361       C1906   1.276   1_455  A
O362       C1905   1.276   1_455  A
O363       Cu366   2.017       .  S
O363       C1904   1.280   1_455  A
O364       Cu366   2.019       .  S
O364       C1903   1.280   1_455  A
Cu365      Cu878   2.374       .  S
Cu366     Cu1901   2.374   1_455  S
C367        O876   1.280       .  A
C367        C437   1.482       .  S
C368        O875   1.280       .  A
C368        C405   1.480       .  S
C369        O874   1.276       .  A
C369        C384   1.462       .  S
C370        O873   1.276       .  A
C370        C383   1.462       .  S
O371       Cu379   2.012       .  S
O371        C381   1.278       .  A
O372       Cu379   2.013       .  S
O372        C382   1.279       .  A
O373       Cu379   2.001       .  S
O373        C383   1.276       .  A
O374       Cu379   1.999       .  S
O374        C384   1.276       .  A
O375       Cu380   2.005       .  S
O375       C1920   1.278       .  A
O376       Cu380   2.006       .  S
O376       C1919   1.278       .  A
O377       Cu380   2.008       .  S
O377       C1918   1.276       .  A
O378       Cu380   2.006       .  S
O378       C1917   1.276       .  A
Cu379      Cu892   2.376       .  S
Cu380     Cu1915   2.376   1_455  S
C381        O890   1.276       .  A
C381        C418   1.475       .  S
C382        O889   1.276       .  A
C382        C389   1.478       .  S
C383        O888   1.278       .  A
C384        O887   1.278       .  A
C385       C1922   1.404   1_455  A
C385        C390   1.409       .  A
C385        H392   1.083       .  S
C386        C897   1.404       .  A
C386        C387   1.420       .  A
C387        C388   1.405       .  A
C387        C394   1.522       .  S
C388        C389   1.401       .  A
C388        H393   1.083       .  S
C389        C902   1.417       .  A
C390       C1925   1.417       .  A
C390        C391   1.518       .  S
C391        F395   1.384       .  S
C391        F396   1.382       .  S
C391        F397   1.382       .  S
C394        F398   1.382       .  S
C394        F399   1.381       .  S
C394        F400   1.385       .  S
C401        C406   1.402       .  A
C401        H408   1.082       .  S
C402        C915   1.421       .  A
C403       C1938   1.421       .  A
C403        C404   1.406       .  A
C403        C410   1.520       .  S
C404       C1941   1.404   1_455  A
C404        H409   1.084       .  S
C405        C916   1.404       .  A
C406        C407   1.522       .  S
C407        F411   1.384       .  S
C407        F412   1.383       .  S
C407        F413   1.382       .  S
C410        F414   1.382       .  S
C410        F415   1.383       .  S
C410        F416   1.385       .  S
C417       C1954   1.404       .  A
C417        C422   1.409       .  A
C417        H424   1.084       .  S
C418        C929   1.404       .  A
C418        C419   1.416       .  A
C419        C420   1.403       .  A
C419        C426   1.520       .  S
C420        C421   1.404       .  A
C420        H425   1.084       .  S
C421        C934   1.419       .  A
C422       C1957   1.419       .  A
C422        C423   1.520       .  S
C423        F427   1.385       .  S
C423        F428   1.383       .  S
C423       F1965   1.381       .  S
C426        F942   1.382       .  S
C426        F431   1.381       .  S
C426        F432   1.385       .  S
F429        C935   1.381       .  S
F430       C1962   1.382       .  S
C433        C438   1.403       .  A
C433        H440   1.083       .  S
C434        C947   1.422       .  A
C435       C1970   1.422       .  A
C435        C436   1.407       .  A
C435        C442   1.520       .  S
C436       C1717   1.405   1_455  A
C436        H441   1.085       .  S
C437        C692   1.405   1_556  A
C437        C438   1.420       .  A
C438        C439   1.523       .  S
C439        F443   1.385       .  S
C439        F444   1.383       .  S
C439        F957   1.381       .  S
C442       F1982   1.382       .  S
C442        F447   1.383       .  S
C442        F448   1.385       .  S
F445       C1975   1.381       .  S
F446        C954   1.382       .  S
C449        C450   1.399       .  A
C449        C454   1.405       .  A
C449        H456   1.084       .  S
C450        C451   1.414       .  A
C451        C452   1.409       .  A
C451        C458   1.515       .  S
C452        C453   1.402       .  A
C452        H457   1.083       .  S
C453        C454   1.416       .  A
C454        C455   1.518       .  S
C455        F459   1.383       .  S
C455        F460   1.382       .  S
C455        F461   1.383       .  S
C458        F462   1.384       .  S
C458        F463   1.382       .  S
C458        F464   1.382       .  S
C465        C466   1.404       .  A
C465        C470   1.405       .  A
C465        H472   1.083       .  S
C466        C467   1.419       .  A
C467        C468   1.409       .  A
C467        C474   1.520       .  S
C468        C469   1.409       .  A
C468        H473   1.081       .  S
C469        C470   1.425       .  A
C470        C471   1.524       .  S
C471        F475   1.385       .  S
C471        F476   1.382       .  S
C471        F477   1.382       .  S
C474        F478   1.383       .  S
C474        F479   1.382       .  S
C474        F480   1.385       .  S
C481        C486   1.407       .  A
C481        H488   1.081       .  S
C482        C483   1.426       .  A
C483        C484   1.404       .  A
C483        C490   1.523       .  S
C484        C485   1.402       .  A
C484        H489   1.083       .  S
C486        C487   1.521       .  S
C487        F491   1.385       .  S
C487        F492   1.383       .  S
C490        F495   1.383       .  S
C490        F496   1.385       .  S
C497        C498   1.401       .  A
C497        C502   1.403       .  A
C497        H504   1.083       .  S
C499        C500   1.408       .  A
C499        C506   1.518       .  S
C500        H505   1.083       .  S
C501        C502   1.417       .  A
C502        C503   1.520       .  S
C503        F507   1.385       .  S
C503        F508   1.381       .  S
C503        F509   1.381       .  S
C506        F510   1.382       .  S
C506        F511   1.383       .  S
C506        F512   1.385       .  S
O513       Cu521   2.011       .  S
O513        C523   1.277       .  A
O514       Cu521   2.009   1_545  S
O514        C780   1.279       .  A
O515       Cu521   2.003       .  S
O515        C525   1.277       .  A
O516       Cu777   2.000   1_544  S
O516        C526   1.276   1_545  A
O517       Cu522   2.005   1_554  S
O517        C526   1.277       .  A
O518       Cu778   2.003       .  S
O518        C525   1.277       .  A
O519       Cu522   2.001   1_545  S
O519        C524   1.275       .  A
O520       Cu522   2.002       .  S
O520        C779   1.277       .  A
Cu521       O772   2.000   1_565  S
Cu521      Cu778   2.375       .  S
Cu522       O774   2.003       .  S
Cu522      Cu777   2.375       .  S
C523        O776   1.277       .  A
C523        C754   1.472       .  S
C524        O770   1.279       .  A
C524        C741   1.487       .  S
C525        C540   1.462   1_565  S
C526        C539   1.462       .  S
O527       Cu535   2.003       .  S
O527        C537   1.278       .  A
O528       Cu535   2.005   1_545  S
O528        C538   1.276       .  A
O529       Cu535   2.003       .  S
O529        C539   1.277       .  A
O530       Cu535   2.005   1_545  S
O530        C540   1.277       .  A
O531       Cu536   2.002   1_545  S
O531        C540   1.277       .  A
O532       Cu536   2.001       .  S
O532        C539   1.277       .  A
O533       Cu536   2.014   1_545  S
O533        C538   1.278       .  A
O534       Cu536   2.013       .  S
O534        C537   1.277       .  A
Cu535      Cu536   2.375       .  S
C537        C722   1.488       .  S
C538        C706   1.470       .  S
C541        C738   1.497       .  S
C541        C542   1.400       .  A
C541        C546   1.407       .  A
C542        C543   1.407       .  A
C542        H547   1.079   1_554  S
C543        C597   1.495       .  S
C543        C544   1.405       .  A
C544        C545   1.407       .  A
C544        H548   1.079       .  S
C545        C599   1.501       .  S
C545        C546   1.409       .  A
C546        H549   1.077       .  S
C550        C709   1.478       .  S
C550        C551   1.399       .  A
C550        C555   1.395       .  A
C551        C552   1.412       .  A
C551        H556   1.081       .  S
C552        C606   1.501       .  S
C552        C553   1.407       .  A
C553        C554   1.408       .  A
C553        H557   1.078       .  S
C554        C608   1.495       .  S
C554        C555   1.408       .  A
C555        H558   1.081       .  S
C559        C757   1.479       .  S
C559        C816   1.399       .  A
C559        C820   1.395       .  A
C560        C815   1.399       .  A
C560        C561   1.413       .  A
C560        H565   1.080       .  S
C561        C581   1.504       .  S
C561        C562   1.410       .  A
C562        C563   1.409       .  A
C562        H566   1.079       .  S
C563        C579   1.491       .  S
C563        C564   1.403       .  A
C564        C815   1.395       .  A
C564        H567   1.083       .  S
C568        C725   1.496       .  S
C568        C569   1.400       .  A
C568        C573   1.406       .  A
C569        C570   1.405       .  A
C569        H574   1.080       .  S
C570        C590   1.491       .  S
C570        C571   1.406       .  A
C571        C572   1.409       .  A
C571        H575   1.078       .  S
C572        C588   1.508       .  S
C572        C573   1.412       .  A
C573        H576   1.077       .  S
C577        C690   1.493       .  S
C577        C578   1.402       .  A
C577       C1094   1.405       .  A
C578        C579   1.402       .  A
C578        H583   1.082       .  S
C579       C1092   1.405       .  A
C580        C581   1.409       .  A
C580        H584   1.079       .  S
C581        C582   1.414       .  A
C582        H585   1.078       .  S
C586        C677   1.483       .  S
C586        C587   1.401       .  A
C586       C1103   1.398       .  A
C587        C588   1.414       .  A
C587        H592   1.077       .  S
C588       C1101   1.411       .  A
C589        C590   1.406       .  A
C589        H593   1.078       .  S
C590        C591   1.403       .  A
C591        H594   1.082       .  S
C595        C658   1.489       .  S
C595       C1108   1.401       .  A
C595        C600   1.403       .  A
C596        C853   1.407       .  A
C596        H601   1.079       .  S
C597        C852   1.407       .  A
C598       C1109   1.408       .  A
C598        C599   1.407       .  A
C598        H602   1.078       .  S
C599        C856   1.408       .  A
C600        C855   1.408       .  A
C600        H603   1.082       .  S
C604        C642   1.485       .  S
C604       C1117   1.401       .  A
C604        C609   1.396       .  A
C605        C606   1.413       .  A
C605        H610   1.080       .  S
C607       C1118   1.407       .  A
C607        C608   1.407       .  A
C607        H611   1.078       .  S
C608        C609   1.407       .  A
C609        H612   1.081       .  S
O613       Cu621   1.994       .  S
O613        C623   1.275       .  A
O614       Cu621   1.991       .  S
O614        C624   1.274       .  A
O615       Cu877   2.005   1_554  S
O615        C625   1.278       .  A
O616       Cu621   2.005       .  S
O616        C626   1.277       .  A
O617       Cu622   2.001       .  S
O618       Cu878   2.000   1_554  S
O619       Cu622   2.017       .  S
O620       Cu622   2.019       .  S
Cu621       O871   2.005       .  S
Cu621     Cu1134   2.374       .  S
Cu622       O874   2.000       .  S
C623       O1132   1.280       .  A
C623        C693   1.482       .  S
C624       O1131   1.280       .  A
C624        C661   1.480       .  S
C625       O1130   1.276       .  A
C625        C640   1.462       .  S
C626       O1129   1.276       .  A
C626        C639   1.462       .  S
O627       Cu635   2.012       .  S
O627        C637   1.278       .  A
O628       Cu635   2.013       .  S
O628        C638   1.279       .  A
O629       Cu635   2.001       .  S
O629        C639   1.276       .  A
O630       Cu635   1.999       .  S
O630        C640   1.276       .  A
O631       Cu636   2.005       .  S
O632       Cu636   2.006       .  S
O633       Cu636   2.008       .  S
O634       Cu636   2.006       .  S
Cu635     Cu1148   2.376       .  S
C637       O1146   1.276       .  A
C637        C674   1.475       .  S
C638       O1145   1.276       .  A
C638        C645   1.478       .  S
C639       O1144   1.278       .  A
C640       O1143   1.278       .  A
C641        C646   1.409       .  A
C641        H648   1.083       .  S
C642       C1153   1.404       .  A
C642        C643   1.420       .  A
C643        C644   1.405       .  A
C643        C650   1.522       .  S
C644        C645   1.401       .  A
C644        H649   1.083       .  S
C645       C1158   1.417       .  A
C646        C647   1.518       .  S
C647        F651   1.384       .  S
C647        F652   1.382       .  S
C647        F653   1.382       .  S
C650        F654   1.382       .  S
C650        F655   1.381       .  S
C650        F656   1.385       .  S
C657        C914   1.406   1_554  A
C657        C662   1.402       .  A
C657        H664   1.082       .  S
C658        C913   1.406       .  A
C658       C1171   1.421       .  A
C659        C660   1.406       .  A
C659        C666   1.520       .  S
C660        H665   1.084       .  S
C661       C1172   1.404       .  A
C661        C918   1.419       .  A
C662        C917   1.419   1_554  A
C662        C663   1.522       .  S
C663        F667   1.384       .  S
C663        F668   1.383       .  S
C663        F669   1.382       .  S
C666        F670   1.382       .  S
C666        F671   1.383       .  S
C666        F672   1.385       .  S
C673        C678   1.409       .  A
C673        H680   1.084       .  S
C674       C1185   1.404       .  A
C674        C675   1.416       .  A
C675        C676   1.403       .  A
C675        C682   1.520       .  S
C676        C677   1.404       .  A
C676        H681   1.084       .  S
C677       C1190   1.419       .  A
C678        C679   1.520       .  S
C679        F683   1.385       .  S
C679        F684   1.383       .  S
C682       F1198   1.382       .  S
C682        F687   1.381       .  S
C682        F688   1.385       .  S
F685       C1191   1.381       .  S
C689        C946   1.408       .  A
C689        C694   1.403       .  A
C689        H696   1.083       .  S
C690        C945   1.408       .  A
C690       C1203   1.422   1_556  A
C691        C692   1.407       .  A
C691        C698   1.520       .  S
C692        H697   1.085       .  S
C693       C1460   1.405       .  A
C693        C694   1.420       .  A
C694        C695   1.523       .  S
C695        F699   1.385       .  S
C695        F700   1.383       .  S
C695       F1213   1.381       .  S
C698        F703   1.383       .  S
C698        F704   1.385       .  S
F702       C1210   1.382       .  S
C705        C706   1.399       .  A
C705        C710   1.405       .  A
C705        H712   1.084       .  S
C706        C707   1.414       .  A
C707        C708   1.409       .  A
C707        C714   1.515       .  S
C708        C709   1.402       .  A
C708        H713   1.083       .  S
C709        C710   1.416       .  A
C710        C711   1.518       .  S
C711        F715   1.383       .  S
C711        F716   1.382       .  S
C711        F717   1.383       .  S
C714        F718   1.384       .  S
C714        F719   1.382       .  S
C714        F720   1.382       .  S
C721        C722   1.404       .  A
C721        C726   1.405       .  A
C721        H728   1.083       .  S
C722        C723   1.419       .  A
C723        C724   1.409       .  A
C723        C730   1.520       .  S
C724        C725   1.409       .  A
C724        H729   1.081       .  S
C725        C726   1.425       .  A
C726        C727   1.524       .  S
C727        F731   1.385       .  S
C727        F732   1.382       .  S
C727        F733   1.382       .  S
C730        F734   1.383       .  S
C730        F735   1.382       .  S
C730        F736   1.385       .  S
C737        C994   1.408       .  A
C737        C742   1.407       .  A
C737        H744   1.081       .  S
C738        C993   1.408   1_554  A
C738        C739   1.426       .  A
C739        C740   1.404       .  A
C739        C746   1.523       .  S
C740        C741   1.402   1_554  A
C740        H745   1.083       .  S
C741        C998   1.421       .  A
C742        C997   1.421       .  A
C742        C743   1.521       .  S
C743        F747   1.385       .  S
C743        F748   1.383       .  S
C743       F1005   1.383       .  S
C746       F1006   1.382       .  S
C746        F751   1.383       .  S
C746        F752   1.385       .  S
F749        C999   1.383       .  S
F750       C1002   1.382       .  S
C753        C754   1.401       .  A
C753        C758   1.403       .  A
C753        H760   1.083       .  S
C754       C1011   1.416       .  A
C755       C1010   1.416   1_554  A
C755        C756   1.408       .  A
C755        C762   1.518       .  S
C756       C1013   1.404   1_554  A
C756        H761   1.083       .  S
C757       C1012   1.404       .  A
C757        C758   1.417       .  A
C758        C759   1.520       .  S
C759        F763   1.385       .  S
C759        F764   1.381       .  S
C759        F765   1.381       .  S
C762        F766   1.382       .  S
C762        F767   1.383       .  S
C762        F768   1.385       .  S
O769       Cu777   2.011       .  S
O769        C779   1.277       .  A
O770       Cu777   2.009   1_545  S
O771       Cu777   2.003       .  S
O771        C781   1.277       .  A
O772        C782   1.276   1_545  A
O773       Cu778   2.005       .  S
O773        C782   1.277       .  A
O774        C781   1.277       .  A
O775       Cu778   2.001   1_545  S
O775        C780   1.275       .  A
O776       Cu778   2.002       .  S
C779       C1010   1.472       .  S
C780        C997   1.487       .  S
C781        C796   1.462   1_565  S
C782        C795   1.462       .  S
O783       Cu791   2.003       .  S
O783        C793   1.278       .  A
O784       Cu791   2.005   1_545  S
O784        C794   1.276       .  A
O785       Cu791   2.003       .  S
O785        C795   1.277       .  A
O786       Cu791   2.005   1_545  S
O786        C796   1.277       .  A
O787       Cu792   2.002   1_545  S
O787        C796   1.277       .  A
O788       Cu792   2.001       .  S
O788        C795   1.277       .  A
O789       Cu792   2.014   1_545  S
O789        C794   1.278       .  A
O790       Cu792   2.013       .  S
O790        C793   1.277       .  A
Cu791      Cu792   2.375       .  S
C793        C978   1.488       .  S
C794        C962   1.470       .  S
C797        C994   1.497       .  S
C797        C798   1.400       .  A
C797        C802   1.407       .  A
C798        C799   1.407       .  A
C798        H803   1.079       .  S
C799        C853   1.495       .  S
C799        C800   1.405       .  A
C800        C801   1.407       .  A
C800        H804   1.079       .  S
C801        C855   1.501       .  S
C801        C802   1.409       .  A
C802        H805   1.077       .  S
C806        C965   1.478       .  S
C806        C807   1.399       .  A
C806        C811   1.395       .  A
C807        C808   1.412       .  A
C807        H812   1.081       .  S
C808        C862   1.501       .  S
C808        C809   1.407       .  A
C809        C810   1.408       .  A
C809        H813   1.078       .  S
C810        C864   1.495       .  S
C810        C811   1.408       .  A
C811        H814   1.081       .  S
C815       C1013   1.479       .  S
C816        C817   1.413       .  A
C816        H821   1.080       .  S
C817        C837   1.504       .  S
C817        C818   1.410       .  A
C818        C819   1.409       .  A
C818        H822   1.079       .  S
C819        C835   1.491       .  S
C819        C820   1.403       .  A
C820        H823   1.083       .  S
C824        C981   1.496       .  S
C824        C825   1.400       .  A
C824        C829   1.406       .  A
C825        C826   1.405       .  A
C825        H830   1.080       .  S
C826        C846   1.491       .  S
C826        C827   1.406       .  A
C827        C828   1.409       .  A
C827        H831   1.078       .  S
C828        C844   1.508       .  S
C828        C829   1.412       .  A
C829        H832   1.077       .  S
C833        C946   1.493       .  S
C833        C834   1.402       .  A
C833       C1350   1.405       .  A
C834        C835   1.402       .  A
C834        H839   1.082       .  S
C835       C1348   1.405       .  A
C836        C837   1.409       .  A
C836        H840   1.079       .  S
C837        C838   1.414       .  A
C838        H841   1.078       .  S
C842        C933   1.483       .  S
C842        C843   1.401       .  A
C842       C1359   1.398       .  A
C843        C844   1.414       .  A
C843        H848   1.077       .  S
C844       C1357   1.411       .  A
C845        C846   1.406       .  A
C845        H849   1.078       .  S
C846        C847   1.403       .  A
C847        H850   1.082       .  S
C851        C914   1.489       .  S
C851       C1364   1.401   1_556  A
C851        C856   1.403   1_556  A
C852        H857   1.079       .  S
C854       C1365   1.408       .  A
C854        C855   1.407       .  A
C854        H858   1.078       .  S
C856        H859   1.082   1_554  S
C860        C898   1.485       .  S
C860       C1373   1.401       .  A
C860        C865   1.396       .  A
C861        C862   1.413       .  A
C861        H866   1.080       .  S
C863       C1374   1.407       .  A
C863        C864   1.407       .  A
C863        H867   1.078       .  S
C864        C865   1.407       .  A
C865        H868   1.081       .  S
O869       Cu877   1.994   1_554  S
O869        C879   1.275   1_554  A
O870       Cu877   1.991       .  S
O870        C880   1.274       .  A
O871        C881   1.278       .  A
O872       Cu877   2.005       .  S
O872        C882   1.277       .  A
O873       Cu878   2.001       .  S
O875       Cu878   2.017       .  S
O876       Cu878   2.019       .  S
Cu877     Cu1390   2.374       .  S
C879       O1388   1.280       .  A
C879        C949   1.482       .  S
C880       O1387   1.280       .  A
C880        C917   1.480       .  S
C881       O1386   1.276       .  A
C881        C896   1.462       .  S
C882       O1385   1.276       .  A
C882        C895   1.462       .  S
O883       Cu891   2.012       .  S
O883        C893   1.278       .  A
O884       Cu891   2.013       .  S
O884        C894   1.279       .  A
O885       Cu891   2.001       .  S
O885        C895   1.276       .  A
O886       Cu891   1.999       .  S
O886        C896   1.276       .  A
O887       Cu892   2.005       .  S
O888       Cu892   2.006       .  S
O889       Cu892   2.008       .  S
O890       Cu892   2.006       .  S
Cu891     Cu1404   2.376       .  S
C893       O1402   1.276       .  A
C893        C930   1.475       .  S
C894       O1401   1.276       .  A
C894        C901   1.478       .  S
C895       O1400   1.278       .  A
C896       O1399   1.278       .  A
C897        C902   1.409       .  A
C897        H904   1.083       .  S
C898       C1409   1.404       .  A
C898        C899   1.420       .  A
C899        C900   1.405       .  A
C899        C906   1.522       .  S
C900        C901   1.401       .  A
C900        H905   1.083       .  S
C901       C1414   1.417       .  A
C902        C903   1.518       .  S
C903        F907   1.384       .  S
C903        F908   1.382       .  S
C903        F909   1.382       .  S
C906        F910   1.382       .  S
C906        F911   1.381       .  S
C906        F912   1.385       .  S
C913        C918   1.402       .  A
C913        H920   1.082       .  S
C914       C1427   1.421       .  A
C915        C916   1.406       .  A
C915        C922   1.520       .  S
C916        H921   1.084       .  S
C917       C1428   1.404       .  A
C918        C919   1.522       .  S
C919        F923   1.384       .  S
C919        F924   1.383       .  S
C919        F925   1.382       .  S
C922        F926   1.382       .  S
C922        F927   1.383       .  S
C922        F928   1.385       .  S
C929        C934   1.409       .  A
C929        H936   1.084       .  S
C930       C1441   1.404       .  A
C930        C931   1.416       .  A
C931        C932   1.403       .  A
C931        C938   1.520       .  S
C932        C933   1.404       .  A
C932        H937   1.084       .  S
C933       C1446   1.419       .  A
C934        C935   1.520       .  S
C935        F939   1.385       .  S
C935        F940   1.383       .  S
C938       F1454   1.382       .  S
C938        F943   1.381       .  S
C938        F944   1.385       .  S
F941       C1447   1.381       .  S
C945        C950   1.403       .  A
C945        H952   1.083       .  S
C946       C1459   1.422       .  A
C947        C948   1.407       .  A
C947        C954   1.520       .  S
C948        H953   1.085       .  S
C949       C1204   1.405   1_556  A
C949        C950   1.420       .  A
C950        C951   1.523       .  S
C951        F955   1.385       .  S
C951        F956   1.383       .  S
C951       F1469   1.381       .  S
C954        F959   1.383       .  S
C954        F960   1.385       .  S
F958       C1466   1.382       .  S
C961        C962   1.399       .  A
C961        C966   1.405       .  A
C961        H968   1.084       .  S
C962        C963   1.414       .  A
C963        C964   1.409       .  A
C963        C970   1.515       .  S
C964        C965   1.402       .  A
C964        H969   1.083       .  S
C965        C966   1.416       .  A
C966        C967   1.518       .  S
C967        F971   1.383       .  S
C967        F972   1.382       .  S
C967        F973   1.383       .  S
C970        F974   1.384       .  S
C970        F975   1.382       .  S
C970        F976   1.382       .  S
C977        C978   1.404       .  A
C977        C982   1.405       .  A
C977        H984   1.083       .  S
C978        C979   1.419       .  A
C979        C980   1.409       .  A
C979        C986   1.520       .  S
C980        C981   1.409       .  A
C980        H985   1.081       .  S
C981        C982   1.425       .  A
C982        C983   1.524       .  S
C983        F987   1.385       .  S
C983        F988   1.382       .  S
C983        F989   1.382       .  S
C986        F990   1.383       .  S
C986        F991   1.382       .  S
C986        F992   1.385       .  S
C993        C998   1.407       .  A
C993       H1000   1.081       .  S
C994        C995   1.426       .  A
C995        C996   1.404       .  A
C995       C1002   1.523       .  S
C996        C997   1.402       .  A
C996       H1001   1.083       .  S
C998        C999   1.521       .  S
C999       F1003   1.385       .  S
C999       F1004   1.383       .  S
C1002      F1007   1.383       .  S
C1002      F1008   1.385       .  S
C1009      C1010   1.401       .  A
C1009      C1014   1.403       .  A
C1009      H1016   1.083       .  S
C1011      C1012   1.408       .  A
C1011      C1018   1.518       .  S
C1012      H1017   1.083       .  S
C1013      C1014   1.417       .  A
C1014      C1015   1.520       .  S
C1015      F1019   1.385       .  S
C1015      F1020   1.381       .  S
C1015      F1021   1.381       .  S
C1018      F1022   1.382       .  S
C1018      F1023   1.383       .  S
C1018      F1024   1.385       .  S
O1025     Cu1033   2.011       .  S
O1025      C1035   1.277       .  A
O1026     Cu1033   2.009   1_545  S
O1026      C1292   1.279       .  A
O1027     Cu1033   2.003       .  S
O1027      C1037   1.277       .  A
O1028     Cu1289   2.000   1_544  S
O1028      C1038   1.276   1_545  A
O1029     Cu1034   2.005   1_554  S
O1029      C1038   1.277       .  A
O1030     Cu1290   2.003       .  S
O1030      C1037   1.277       .  A
O1031     Cu1034   2.001   1_545  S
O1031      C1036   1.275       .  A
O1032     Cu1034   2.002       .  S
O1032      C1291   1.277       .  A
Cu1033     O1284   2.000   1_565  S
Cu1033    Cu1290   2.375       .  S
Cu1034     O1286   2.003       .  S
Cu1034    Cu1289   2.375       .  S
C1035      O1288   1.277       .  A
C1035      C1266   1.472       .  S
C1036      O1282   1.279       .  A
C1036      C1253   1.487       .  S
C1037      C1052   1.462   1_565  S
C1038      C1051   1.462       .  S
O1039     Cu1047   2.003       .  S
O1039      C1049   1.278       .  A
O1040     Cu1047   2.005   1_545  S
O1040      C1050   1.276       .  A
O1041     Cu1047   2.003       .  S
O1041      C1051   1.277       .  A
O1042     Cu1047   2.005   1_545  S
O1042      C1052   1.277       .  A
O1043     Cu1048   2.002   1_545  S
O1043      C1052   1.277       .  A
O1044     Cu1048   2.001       .  S
O1044      C1051   1.277       .  A
O1045     Cu1048   2.014   1_545  S
O1045      C1050   1.278       .  A
O1046     Cu1048   2.013       .  S
O1046      C1049   1.277       .  A
Cu1047    Cu1048   2.375       .  S
C1049      C1234   1.488       .  S
C1050      C1218   1.470       .  S
C1053      C1250   1.497       .  S
C1053      C1054   1.400       .  A
C1053      C1058   1.407       .  A
C1054      C1055   1.407       .  A
C1054      H1059   1.079   1_554  S
C1055      C1109   1.495       .  S
C1055      C1056   1.405       .  A
C1056      C1057   1.407       .  A
C1056      H1060   1.079       .  S
C1057      C1111   1.501       .  S
C1057      C1058   1.409       .  A
C1058      H1061   1.077       .  S
C1062      C1221   1.478       .  S
C1062      C1063   1.399       .  A
C1062      C1067   1.395       .  A
C1063      C1064   1.412       .  A
C1063      H1068   1.081       .  S
C1064      C1118   1.501       .  S
C1064      C1065   1.407       .  A
C1065      C1066   1.408       .  A
C1065      H1069   1.078       .  S
C1066      C1120   1.495       .  S
C1066      C1067   1.408       .  A
C1067      H1070   1.081       .  S
C1071      C1269   1.479       .  S
C1071      C1328   1.399       .  A
C1071      C1332   1.395       .  A
C1072      C1327   1.399       .  A
C1072      C1073   1.413       .  A
C1072      H1077   1.080       .  S
C1073      C1093   1.504       .  S
C1073      C1074   1.410       .  A
C1074      C1075   1.409       .  A
C1074      H1078   1.079       .  S
C1075      C1091   1.491       .  S
C1075      C1076   1.403       .  A
C1076      C1327   1.395       .  A
C1076      H1079   1.083       .  S
C1080      C1237   1.496       .  S
C1080      C1081   1.400       .  A
C1080      C1085   1.406       .  A
C1081      C1082   1.405       .  A
C1081      H1086   1.080       .  S
C1082      C1102   1.491       .  S
C1082      C1083   1.406       .  A
C1083      C1084   1.409       .  A
C1083      H1087   1.078       .  S
C1084      C1100   1.508       .  S
C1084      C1085   1.412       .  A
C1085      H1088   1.077       .  S
C1089      C1202   1.493       .  S
C1089      C1090   1.402       .  A
C1089      C1606   1.405       .  A
C1090      C1091   1.402       .  A
C1090      H1095   1.082       .  S
C1091      C1604   1.405       .  A
C1092      C1093   1.409       .  A
C1092      H1096   1.079       .  S
C1093      C1094   1.414       .  A
C1094      H1097   1.078       .  S
C1098      C1189   1.483       .  S
C1098      C1099   1.401       .  A
C1098      C1615   1.398       .  A
C1099      C1100   1.414       .  A
C1099      H1104   1.077       .  S
C1100      C1613   1.411       .  A
C1101      C1102   1.406       .  A
C1101      H1105   1.078       .  S
C1102      C1103   1.403       .  A
C1103      H1106   1.082       .  S
C1107      C1170   1.489       .  S
C1107      C1620   1.401       .  A
C1107      C1112   1.403       .  A
C1108      C1365   1.407       .  A
C1108      H1113   1.079       .  S
C1109      C1364   1.407       .  A
C1110      C1621   1.408       .  A
C1110      C1111   1.407       .  A
C1110      H1114   1.078       .  S
C1111      C1368   1.408       .  A
C1112      C1367   1.408       .  A
C1112      H1115   1.082       .  S
C1116      C1154   1.485       .  S
C1116      C1629   1.401       .  A
C1116      C1121   1.396       .  A
C1117      C1118   1.413       .  A
C1117      H1122   1.080       .  S
C1119      C1630   1.407       .  A
C1119      C1120   1.407       .  A
C1119      H1123   1.078       .  S
C1120      C1121   1.407       .  A
C1121      H1124   1.081       .  S
O1125     Cu1133   1.994       .  S
O1125      C1135   1.275       .  A
O1126     Cu1133   1.991       .  S
O1126      C1136   1.274       .  A
O1127     Cu1389   2.005   1_554  S
O1127      C1137   1.278       .  A
O1128     Cu1133   2.005       .  S
O1128      C1138   1.277       .  A
O1129     Cu1134   2.001       .  S
O1130     Cu1390   2.000   1_554  S
O1131     Cu1134   2.017       .  S
O1132     Cu1134   2.019       .  S
Cu1133     O1383   2.005       .  S
Cu1133    Cu1646   2.374       .  S
Cu1134     O1386   2.000       .  S
C1135      O1644   1.280       .  A
C1135      C1205   1.482       .  S
C1136      O1643   1.280       .  A
C1136      C1173   1.480       .  S
C1137      O1642   1.276       .  A
C1137      C1152   1.462       .  S
C1138      O1641   1.276       .  A
C1138      C1151   1.462       .  S
O1139     Cu1147   2.012       .  S
O1139      C1149   1.278       .  A
O1140     Cu1147   2.013       .  S
O1140      C1150   1.279       .  A
O1141     Cu1147   2.001       .  S
O1141      C1151   1.276       .  A
O1142     Cu1147   1.999       .  S
O1142      C1152   1.276       .  A
O1143     Cu1148   2.005       .  S
O1144     Cu1148   2.006       .  S
O1145     Cu1148   2.008       .  S
O1146     Cu1148   2.006       .  S
Cu1147    Cu1660   2.376       .  S
C1149      O1658   1.276       .  A
C1149      C1186   1.475       .  S
C1150      O1657   1.276       .  A
C1150      C1157   1.478       .  S
C1151      O1656   1.278       .  A
C1152      O1655   1.278       .  A
C1153      C1158   1.409       .  A
C1153      H1160   1.083       .  S
C1154      C1665   1.404       .  A
C1154      C1155   1.420       .  A
C1155      C1156   1.405       .  A
C1155      C1162   1.522       .  S
C1156      C1157   1.401       .  A
C1156      H1161   1.083       .  S
C1157      C1670   1.417       .  A
C1158      C1159   1.518       .  S
C1159      F1163   1.384       .  S
C1159      F1164   1.382       .  S
C1159      F1165   1.382       .  S
C1162      F1166   1.382       .  S
C1162      F1167   1.381       .  S
C1162      F1168   1.385       .  S
C1169      C1426   1.406   1_554  A
C1169      C1174   1.402       .  A
C1169      H1176   1.082       .  S
C1170      C1425   1.406       .  A
C1170      C1683   1.421       .  A
C1171      C1172   1.406       .  A
C1171      C1178   1.520       .  S
C1172      H1177   1.084       .  S
C1173      C1684   1.404       .  A
C1173      C1430   1.419       .  A
C1174      C1429   1.419   1_554  A
C1174      C1175   1.522       .  S
C1175      F1179   1.384       .  S
C1175      F1180   1.383       .  S
C1175      F1181   1.382       .  S
C1178      F1182   1.382       .  S
C1178      F1183   1.383       .  S
C1178      F1184   1.385       .  S
C1185      C1190   1.409       .  A
C1185      H1192   1.084       .  S
C1186      C1697   1.404       .  A
C1186      C1187   1.416       .  A
C1187      C1188   1.403       .  A
C1187      C1194   1.520       .  S
C1188      C1189   1.404       .  A
C1188      H1193   1.084       .  S
C1189      C1702   1.419       .  A
C1190      C1191   1.520       .  S
C1191      F1195   1.385       .  S
C1191      F1196   1.383       .  S
C1194      F1710   1.382       .  S
C1194      F1199   1.381       .  S
C1194      F1200   1.385       .  S
F1197      C1703   1.381       .  S
C1201      C1458   1.408       .  A
C1201      C1206   1.403       .  A
C1201      H1208   1.083       .  S
C1202      C1457   1.408       .  A
C1202      C1715   1.422   1_556  A
C1203      C1204   1.407       .  A
C1203      C1210   1.520       .  S
C1204      H1209   1.085       .  S
C1205      C1972   1.405       .  A
C1205      C1206   1.420       .  A
C1206      C1207   1.523       .  S
C1207      F1211   1.385       .  S
C1207      F1212   1.383       .  S
C1207      F1725   1.381       .  S
C1210      F1215   1.383       .  S
C1210      F1216   1.385       .  S
F1214      C1722   1.382       .  S
C1217      C1218   1.399       .  A
C1217      C1222   1.405       .  A
C1217      H1224   1.084       .  S
C1218      C1219   1.414       .  A
C1219      C1220   1.409       .  A
C1219      C1226   1.515       .  S
C1220      C1221   1.402       .  A
C1220      H1225   1.083       .  S
C1221      C1222   1.416       .  A
C1222      C1223   1.518       .  S
C1223      F1227   1.383       .  S
C1223      F1228   1.382       .  S
C1223      F1229   1.383       .  S
C1226      F1230   1.384       .  S
C1226      F1231   1.382       .  S
C1226      F1232   1.382       .  S
C1233      C1234   1.404       .  A
C1233      C1238   1.405       .  A
C1233      H1240   1.083       .  S
C1234      C1235   1.419       .  A
C1235      C1236   1.409       .  A
C1235      C1242   1.520       .  S
C1236      C1237   1.409       .  A
C1236      H1241   1.081       .  S
C1237      C1238   1.425       .  A
C1238      C1239   1.524       .  S
C1239      F1243   1.385       .  S
C1239      F1244   1.382       .  S
C1239      F1245   1.382       .  S
C1242      F1246   1.383       .  S
C1242      F1247   1.382       .  S
C1242      F1248   1.385       .  S
C1249      C1506   1.408       .  A
C1249      C1254   1.407       .  A
C1249      H1256   1.081       .  S
C1250      C1505   1.408   1_554  A
C1250      C1251   1.426       .  A
C1251      C1252   1.404       .  A
C1251      C1258   1.523       .  S
C1252      C1253   1.402   1_554  A
C1252      H1257   1.083       .  S
C1253      C1510   1.421       .  A
C1254      C1509   1.421       .  A
C1254      C1255   1.521       .  S
C1255      F1259   1.385       .  S
C1255      F1260   1.383       .  S
C1255      F1517   1.383       .  S
C1258      F1518   1.382       .  S
C1258      F1263   1.383       .  S
C1258      F1264   1.385       .  S
F1261      C1511   1.383       .  S
F1262      C1514   1.382       .  S
C1265      C1266   1.401       .  A
C1265      C1270   1.403       .  A
C1265      H1272   1.083       .  S
C1266      C1523   1.416       .  A
C1267      C1522   1.416   1_554  A
C1267      C1268   1.408       .  A
C1267      C1274   1.518       .  S
C1268      C1525   1.404   1_554  A
C1268      H1273   1.083       .  S
C1269      C1524   1.404       .  A
C1269      C1270   1.417       .  A
C1270      C1271   1.520       .  S
C1271      F1275   1.385       .  S
C1271      F1276   1.381       .  S
C1271      F1277   1.381       .  S
C1274      F1278   1.382       .  S
C1274      F1279   1.383       .  S
C1274      F1280   1.385       .  S
O1281     Cu1289   2.011       .  S
O1281      C1291   1.277       .  A
O1282     Cu1289   2.009   1_545  S
O1283     Cu1289   2.003       .  S
O1283      C1293   1.277       .  A
O1284      C1294   1.276   1_545  A
O1285     Cu1290   2.005       .  S
O1285      C1294   1.277       .  A
O1286      C1293   1.277       .  A
O1287     Cu1290   2.001   1_545  S
O1287      C1292   1.275       .  A
O1288     Cu1290   2.002       .  S
C1291      C1522   1.472       .  S
C1292      C1509   1.487       .  S
C1293      C1308   1.462   1_565  S
C1294      C1307   1.462       .  S
O1295     Cu1303   2.003       .  S
O1295      C1305   1.278       .  A
O1296     Cu1303   2.005   1_545  S
O1296      C1306   1.276       .  A
O1297     Cu1303   2.003       .  S
O1297      C1307   1.277       .  A
O1298     Cu1303   2.005   1_545  S
O1298      C1308   1.277       .  A
O1299     Cu1304   2.002   1_545  S
O1299      C1308   1.277       .  A
O1300     Cu1304   2.001       .  S
O1300      C1307   1.277       .  A
O1301     Cu1304   2.014   1_545  S
O1301      C1306   1.278       .  A
O1302     Cu1304   2.013       .  S
O1302      C1305   1.277       .  A
Cu1303    Cu1304   2.375       .  S
C1305      C1490   1.488       .  S
C1306      C1474   1.470       .  S
C1309      C1506   1.497       .  S
C1309      C1310   1.400       .  A
C1309      C1314   1.407       .  A
C1310      C1311   1.407       .  A
C1310      H1315   1.079       .  S
C1311      C1365   1.495       .  S
C1311      C1312   1.405       .  A
C1312      C1313   1.407       .  A
C1312      H1316   1.079       .  S
C1313      C1367   1.501       .  S
C1313      C1314   1.409       .  A
C1314      H1317   1.077       .  S
C1318      C1477   1.478       .  S
C1318      C1319   1.399       .  A
C1318      C1323   1.395       .  A
C1319      C1320   1.412       .  A
C1319      H1324   1.081       .  S
C1320      C1374   1.501       .  S
C1320      C1321   1.407       .  A
C1321      C1322   1.408       .  A
C1321      H1325   1.078       .  S
C1322      C1376   1.495       .  S
C1322      C1323   1.408       .  A
C1323      H1326   1.081       .  S
C1327      C1525   1.479       .  S
C1328      C1329   1.413       .  A
C1328      H1333   1.080       .  S
C1329      C1349   1.504       .  S
C1329      C1330   1.410       .  A
C1330      C1331   1.409       .  A
C1330      H1334   1.079       .  S
C1331      C1347   1.491       .  S
C1331      C1332   1.403       .  A
C1332      H1335   1.083       .  S
C1336      C1493   1.496       .  S
C1336      C1337   1.400       .  A
C1336      C1341   1.406       .  A
C1337      C1338   1.405       .  A
C1337      H1342   1.080       .  S
C1338      C1358   1.491       .  S
C1338      C1339   1.406       .  A
C1339      C1340   1.409       .  A
C1339      H1343   1.078       .  S
C1340      C1356   1.508       .  S
C1340      C1341   1.412       .  A
C1341      H1344   1.077       .  S
C1345      C1458   1.493       .  S
C1345      C1346   1.402       .  A
C1345      C1862   1.405       .  A
C1346      C1347   1.402       .  A
C1346      H1351   1.082       .  S
C1347      C1860   1.405       .  A
C1348      C1349   1.409       .  A
C1348      H1352   1.079       .  S
C1349      C1350   1.414       .  A
C1350      H1353   1.078       .  S
C1354      C1445   1.483       .  S
C1354      C1355   1.401       .  A
C1354      C1871   1.398       .  A
C1355      C1356   1.414       .  A
C1355      H1360   1.077       .  S
C1356      C1869   1.411       .  A
C1357      C1358   1.406       .  A
C1357      H1361   1.078       .  S
C1358      C1359   1.403       .  A
C1359      H1362   1.082       .  S
C1363      C1426   1.489       .  S
C1363      C1876   1.401   1_556  A
C1363      C1368   1.403   1_556  A
C1364      H1369   1.079       .  S
C1366      C1877   1.408       .  A
C1366      C1367   1.407       .  A
C1366      H1370   1.078       .  S
C1368      H1371   1.082   1_554  S
C1372      C1410   1.485       .  S
C1372      C1885   1.401       .  A
C1372      C1377   1.396       .  A
C1373      C1374   1.413       .  A
C1373      H1378   1.080       .  S
C1375      C1886   1.407       .  A
C1375      C1376   1.407       .  A
C1375      H1379   1.078       .  S
C1376      C1377   1.407       .  A
C1377      H1380   1.081       .  S
O1381     Cu1389   1.994   1_554  S
O1381      C1391   1.275   1_554  A
O1382     Cu1389   1.991       .  S
O1382      C1392   1.274       .  A
O1383      C1393   1.278       .  A
O1384     Cu1389   2.005       .  S
O1384      C1394   1.277       .  A
O1385     Cu1390   2.001       .  S
O1387     Cu1390   2.017       .  S
O1388     Cu1390   2.019       .  S
Cu1389    Cu1902   2.374       .  S
C1391      O1900   1.280       .  A
C1391      C1461   1.482       .  S
C1392      O1899   1.280       .  A
C1392      C1429   1.480       .  S
C1393      O1898   1.276       .  A
C1393      C1408   1.462       .  S
C1394      O1897   1.276       .  A
C1394      C1407   1.462       .  S
O1395     Cu1403   2.012       .  S
O1395      C1405   1.278       .  A
O1396     Cu1403   2.013       .  S
O1396      C1406   1.279       .  A
O1397     Cu1403   2.001       .  S
O1397      C1407   1.276       .  A
O1398     Cu1403   1.999       .  S
O1398      C1408   1.276       .  A
O1399     Cu1404   2.005       .  S
O1400     Cu1404   2.006       .  S
O1401     Cu1404   2.008       .  S
O1402     Cu1404   2.006       .  S
Cu1403    Cu1916   2.376       .  S
C1405      O1914   1.276       .  A
C1405      C1442   1.475       .  S
C1406      O1913   1.276       .  A
C1406      C1413   1.478       .  S
C1407      O1912   1.278       .  A
C1408      O1911   1.278       .  A
C1409      C1414   1.409       .  A
C1409      H1416   1.083       .  S
C1410      C1921   1.404       .  A
C1410      C1411   1.420       .  A
C1411      C1412   1.405       .  A
C1411      C1418   1.522       .  S
C1412      C1413   1.401       .  A
C1412      H1417   1.083       .  S
C1413      C1926   1.417       .  A
C1414      C1415   1.518       .  S
C1415      F1419   1.384       .  S
C1415      F1420   1.382       .  S
C1415      F1421   1.382       .  S
C1418      F1422   1.382       .  S
C1418      F1423   1.381       .  S
C1418      F1424   1.385       .  S
C1425      C1430   1.402       .  A
C1425      H1432   1.082       .  S
C1426      C1939   1.421       .  A
C1427      C1428   1.406       .  A
C1427      C1434   1.520       .  S
C1428      H1433   1.084       .  S
C1429      C1940   1.404       .  A
C1430      C1431   1.522       .  S
C1431      F1435   1.384       .  S
C1431      F1436   1.383       .  S
C1431      F1437   1.382       .  S
C1434      F1438   1.382       .  S
C1434      F1439   1.383       .  S
C1434      F1440   1.385       .  S
C1441      C1446   1.409       .  A
C1441      H1448   1.084       .  S
C1442      C1953   1.404       .  A
C1442      C1443   1.416       .  A
C1443      C1444   1.403       .  A
C1443      C1450   1.520       .  S
C1444      C1445   1.404       .  A
C1444      H1449   1.084       .  S
C1445      C1958   1.419       .  A
C1446      C1447   1.520       .  S
C1447      F1451   1.385       .  S
C1447      F1452   1.383       .  S
C1450      F1966   1.382       .  S
C1450      F1455   1.381       .  S
C1450      F1456   1.385       .  S
F1453      C1959   1.381       .  S
C1457      C1462   1.403       .  A
C1457      H1464   1.083       .  S
C1458      C1971   1.422       .  A
C1459      C1460   1.407       .  A
C1459      C1466   1.520       .  S
C1460      H1465   1.085       .  S
C1461      C1716   1.405   1_556  A
C1461      C1462   1.420       .  A
C1462      C1463   1.523       .  S
C1463      F1467   1.385       .  S
C1463      F1468   1.383       .  S
C1463      F1981   1.381       .  S
C1466      F1471   1.383       .  S
C1466      F1472   1.385       .  S
F1470      C1978   1.382       .  S
C1473      C1474   1.399       .  A
C1473      C1478   1.405       .  A
C1473      H1480   1.084       .  S
C1474      C1475   1.414       .  A
C1475      C1476   1.409       .  A
C1475      C1482   1.515       .  S
C1476      C1477   1.402       .  A
C1476      H1481   1.083       .  S
C1477      C1478   1.416       .  A
C1478      C1479   1.518       .  S
C1479      F1483   1.383       .  S
C1479      F1484   1.382       .  S
C1479      F1485   1.383       .  S
C1482      F1486   1.384       .  S
C1482      F1487   1.382       .  S
C1482      F1488   1.382       .  S
C1489      C1490   1.404       .  A
C1489      C1494   1.405       .  A
C1489      H1496   1.083       .  S
C1490      C1491   1.419       .  A
C1491      C1492   1.409       .  A
C1491      C1498   1.520       .  S
C1492      C1493   1.409       .  A
C1492      H1497   1.081       .  S
C1493      C1494   1.425       .  A
C1494      C1495   1.524       .  S
C1495      F1499   1.385       .  S
C1495      F1500   1.382       .  S
C1495      F1501   1.382       .  S
C1498      F1502   1.383       .  S
C1498      F1503   1.382       .  S
C1498      F1504   1.385       .  S
C1505      C1510   1.407       .  A
C1505      H1512   1.081       .  S
C1506      C1507   1.426       .  A
C1507      C1508   1.404       .  A
C1507      C1514   1.523       .  S
C1508      C1509   1.402       .  A
C1508      H1513   1.083       .  S
C1510      C1511   1.521       .  S
C1511      F1515   1.385       .  S
C1511      F1516   1.383       .  S
C1514      F1519   1.383       .  S
C1514      F1520   1.385       .  S
C1521      C1522   1.401       .  A
C1521      C1526   1.403       .  A
C1521      H1528   1.083       .  S
C1523      C1524   1.408       .  A
C1523      C1530   1.518       .  S
C1524      H1529   1.083       .  S
C1525      C1526   1.417       .  A
C1526      C1527   1.520       .  S
C1527      F1531   1.385       .  S
C1527      F1532   1.381       .  S
C1527      F1533   1.381       .  S
C1530      F1534   1.382       .  S
C1530      F1535   1.383       .  S
C1530      F1536   1.385       .  S
O1537     Cu1545   2.011       .  S
O1537      C1547   1.277       .  A
O1538     Cu1545   2.009   1_545  S
O1538      C1804   1.279       .  A
O1539     Cu1545   2.003       .  S
O1539      C1549   1.277       .  A
O1540     Cu1801   2.000   1_544  S
O1540      C1550   1.276   1_545  A
O1541     Cu1546   2.005   1_554  S
O1541      C1550   1.277       .  A
O1542     Cu1802   2.003       .  S
O1542      C1549   1.277       .  A
O1543     Cu1546   2.001   1_545  S
O1543      C1548   1.275       .  A
O1544     Cu1546   2.002       .  S
O1544      C1803   1.277       .  A
Cu1545     O1796   2.000   1_565  S
Cu1545    Cu1802   2.375       .  S
Cu1546     O1798   2.003       .  S
Cu1546    Cu1801   2.375       .  S
C1547      O1800   1.277       .  A
C1547      C1778   1.472       .  S
C1548      O1794   1.279       .  A
C1548      C1765   1.487       .  S
C1549      C1564   1.462   1_565  S
C1550      C1563   1.462       .  S
O1551     Cu1559   2.003       .  S
O1551      C1561   1.278       .  A
O1552     Cu1559   2.005   1_545  S
O1552      C1562   1.276       .  A
O1553     Cu1559   2.003       .  S
O1553      C1563   1.277       .  A
O1554     Cu1559   2.005   1_545  S
O1554      C1564   1.277       .  A
O1555     Cu1560   2.002   1_545  S
O1555      C1564   1.277       .  A
O1556     Cu1560   2.001       .  S
O1556      C1563   1.277       .  A
O1557     Cu1560   2.014   1_545  S
O1557      C1562   1.278       .  A
O1558     Cu1560   2.013       .  S
O1558      C1561   1.277       .  A
Cu1559    Cu1560   2.375       .  S
C1561      C1746   1.488       .  S
C1562      C1730   1.470       .  S
C1565      C1762   1.497       .  S
C1565      C1566   1.400       .  A
C1565      C1570   1.407       .  A
C1566      C1567   1.407       .  A
C1566      H1571   1.079   1_554  S
C1567      C1621   1.495       .  S
C1567      C1568   1.405       .  A
C1568      C1569   1.407       .  A
C1568      H1572   1.079       .  S
C1569      C1623   1.501       .  S
C1569      C1570   1.409       .  A
C1570      H1573   1.077       .  S
C1574      C1733   1.478       .  S
C1574      C1575   1.399       .  A
C1574      C1579   1.395       .  A
C1575      C1576   1.412       .  A
C1575      H1580   1.081       .  S
C1576      C1630   1.501       .  S
C1576      C1577   1.407       .  A
C1577      C1578   1.408       .  A
C1577      H1581   1.078       .  S
C1578      C1632   1.495       .  S
C1578      C1579   1.408       .  A
C1579      H1582   1.081       .  S
C1583      C1781   1.479       .  S
C1583      C1840   1.399       .  A
C1583      C1844   1.395       .  A
C1584      C1839   1.399       .  A
C1584      C1585   1.413       .  A
C1584      H1589   1.080       .  S
C1585      C1605   1.504       .  S
C1585      C1586   1.410       .  A
C1586      C1587   1.409       .  A
C1586      H1590   1.079       .  S
C1587      C1603   1.491       .  S
C1587      C1588   1.403       .  A
C1588      C1839   1.395       .  A
C1588      H1591   1.083       .  S
C1592      C1749   1.496       .  S
C1592      C1593   1.400       .  A
C1592      C1597   1.406       .  A
C1593      C1594   1.405       .  A
C1593      H1598   1.080       .  S
C1594      C1614   1.491       .  S
C1594      C1595   1.406       .  A
C1595      C1596   1.409       .  A
C1595      H1599   1.078       .  S
C1596      C1612   1.508       .  S
C1596      C1597   1.412       .  A
C1597      H1600   1.077       .  S
C1601      C1714   1.493       .  S
C1601      C1602   1.402   1_455  A
C1602      C1603   1.402       .  A
C1602      H1607   1.082       .  S
C1604      C1605   1.409       .  A
C1604      H1608   1.079       .  S
C1605      C1606   1.414       .  A
C1606      H1609   1.078       .  S
C1610      C1701   1.483       .  S
C1610      C1611   1.401       .  A
C1611      C1612   1.414       .  A
C1611      H1616   1.077       .  S
C1613      C1614   1.406       .  A
C1613      H1617   1.078       .  S
C1614      C1615   1.403       .  A
C1615      H1618   1.082       .  S
C1619      C1682   1.489       .  S
C1619      C1624   1.403   1_455  A
C1620      C1877   1.407       .  A
C1620      H1625   1.079       .  S
C1621      C1876   1.407       .  A
C1622      C1623   1.407   1_455  A
C1622      H1626   1.078       .  S
C1623      C1880   1.408       .  A
C1624      C1879   1.408       .  A
C1624      H1627   1.082       .  S
C1628      C1666   1.485       .  S
C1628      C1633   1.396       .  A
C1629      C1630   1.413       .  A
C1629      H1634   1.080       .  S
C1631      C1632   1.407       .  A
C1631      H1635   1.078       .  S
C1632      C1633   1.407       .  A
C1633      H1636   1.081       .  S
O1637     Cu1645   1.994       .  S
O1637      C1647   1.275       .  A
O1638     Cu1645   1.991       .  S
O1638      C1648   1.274       .  A
O1639     Cu1901   2.005   1_554  S
O1639      C1649   1.278       .  A
O1640     Cu1645   2.005       .  S
O1640      C1650   1.277       .  A
O1641     Cu1646   2.001       .  S
O1642     Cu1902   2.000   1_554  S
O1643     Cu1646   2.017       .  S
O1644     Cu1646   2.019       .  S
Cu1645     O1895   2.005       .  S
Cu1646     O1898   2.000       .  S
C1647      C1717   1.482       .  S
C1648      C1685   1.480       .  S
C1649      C1664   1.462   1_655  S
C1650      C1663   1.462   1_655  S
O1651     Cu1659   2.012       .  S
O1651      C1661   1.278   1_655  A
O1652     Cu1659   2.013       .  S
O1652      C1662   1.279   1_655  A
O1653     Cu1659   2.001       .  S
O1653      C1663   1.276   1_655  A
O1654     Cu1659   1.999       .  S
O1654      C1664   1.276   1_655  A
O1655     Cu1660   2.005       .  S
O1656     Cu1660   2.006       .  S
O1657     Cu1660   2.008       .  S
O1658     Cu1660   2.006       .  S
C1661      C1698   1.475   1_455  S
C1662      C1669   1.478       .  S
C1665      C1670   1.409       .  A
C1665      H1672   1.083       .  S
C1666      C1667   1.420       .  A
C1667      C1668   1.405       .  A
C1667      C1674   1.522       .  S
C1668      C1669   1.401   1_655  A
C1668      H1673   1.083       .  S
C1670      C1671   1.518       .  S
C1671      F1675   1.384       .  S
C1671      F1676   1.382       .  S
C1671      F1677   1.382       .  S
C1674      F1678   1.382       .  S
C1674      F1679   1.381       .  S
C1674      F1680   1.385       .  S
C1681      C1938   1.406   1_654  A
C1681      C1686   1.402       .  A
C1681      H1688   1.082       .  S
C1682      C1937   1.406   1_455  A
C1683      C1684   1.406       .  A
C1683      C1690   1.520       .  S
C1684      H1689   1.084       .  S
C1685      C1942   1.419       .  A
C1686      C1941   1.419   1_554  A
C1686      C1687   1.522       .  S
C1687      F1691   1.384       .  S
C1687      F1692   1.383       .  S
C1687      F1693   1.382       .  S
C1690      F1694   1.382       .  S
C1690      F1695   1.383       .  S
C1690      F1696   1.385       .  S
C1697      C1702   1.409       .  A
C1697      H1704   1.084       .  S
C1698      C1699   1.416   1_655  A
C1699      C1700   1.403       .  A
C1699      C1706   1.520       .  S
C1700      C1701   1.404   1_455  A
C1700      H1705   1.084       .  S
C1702      C1703   1.520       .  S
C1703      F1707   1.385       .  S
C1703      F1708   1.383       .  S
C1706      F1711   1.381       .  S
C1706      F1712   1.385       .  S
C1713      C1970   1.408   1_655  A
C1713      C1718   1.403       .  A
C1713      H1720   1.083       .  S
C1714      C1969   1.408   1_455  A
C1715      C1716   1.407       .  A
C1715      C1722   1.520       .  S
C1716      H1721   1.085       .  S
C1717      C1718   1.420       .  A
C1718      C1719   1.523       .  S
C1719      F1723   1.385       .  S
C1719      F1724   1.383       .  S
C1722      F1727   1.383       .  S
C1722      F1728   1.385       .  S
C1729      C1730   1.399       .  A
C1729      C1734   1.405       .  A
C1729      H1736   1.084       .  S
C1730      C1731   1.414       .  A
C1731      C1732   1.409       .  A
C1731      C1738   1.515       .  S
C1732      C1733   1.402       .  A
C1732      H1737   1.083       .  S
C1733      C1734   1.416       .  A
C1734      C1735   1.518       .  S
C1735      F1739   1.383       .  S
C1735      F1740   1.382       .  S
C1735      F1741   1.383       .  S
C1738      F1742   1.384       .  S
C1738      F1743   1.382       .  S
C1738      F1744   1.382       .  S
C1745      C1746   1.404       .  A
C1745      C1750   1.405       .  A
C1745      H1752   1.083       .  S
C1746      C1747   1.419       .  A
C1747      C1748   1.409       .  A
C1747      C1754   1.520       .  S
C1748      C1749   1.409       .  A
C1748      H1753   1.081       .  S
C1749      C1750   1.425       .  A
C1750      C1751   1.524       .  S
C1751      F1755   1.385       .  S
C1751      F1756   1.382       .  S
C1751      F1757   1.382       .  S
C1754      F1758   1.383       .  S
C1754      F1759   1.382       .  S
C1754      F1760   1.385       .  S
C1761      C2018   1.408       .  A
C1761      C1766   1.407       .  A
C1761      H1768   1.081       .  S
C1762      C2017   1.408   1_554  A
C1762      C1763   1.426       .  A
C1763      C1764   1.404       .  A
C1763      C1770   1.523       .  S
C1764      C1765   1.402   1_554  A
C1764      H1769   1.083       .  S
C1765      C2022   1.421       .  A
C1766      C2021   1.421       .  A
C1766      C1767   1.521       .  S
C1767      F1771   1.385       .  S
C1767      F1772   1.383       .  S
C1767      F2029   1.383       .  S
C1770      F2030   1.382       .  S
C1770      F1775   1.383       .  S
C1770      F1776   1.385       .  S
F1773      C2023   1.383       .  S
F1774      C2026   1.382       .  S
C1777      C1778   1.401       .  A
C1777      C1782   1.403       .  A
C1777      H1784   1.083       .  S
C1778      C2035   1.416       .  A
C1779      C2034   1.416   1_554  A
C1779      C1780   1.408       .  A
C1779      C1786   1.518       .  S
C1780      C2037   1.404   1_554  A
C1780      H1785   1.083       .  S
C1781      C2036   1.404       .  A
C1781      C1782   1.417       .  A
C1782      C1783   1.520       .  S
C1783      F1787   1.385       .  S
C1783      F1788   1.381       .  S
C1783      F1789   1.381       .  S
C1786      F1790   1.382       .  S
C1786      F1791   1.383       .  S
C1786      F1792   1.385       .  S
O1793     Cu1801   2.011       .  S
O1793      C1803   1.277       .  A
O1794     Cu1801   2.009   1_545  S
O1795     Cu1801   2.003       .  S
O1795      C1805   1.277       .  A
O1796      C1806   1.276   1_545  A
O1797     Cu1802   2.005       .  S
O1797      C1806   1.277       .  A
O1798      C1805   1.277       .  A
O1799     Cu1802   2.001   1_545  S
O1799      C1804   1.275       .  A
O1800     Cu1802   2.002       .  S
C1803      C2034   1.472       .  S
C1804      C2021   1.487       .  S
C1805      C1820   1.462   1_565  S
C1806      C1819   1.462       .  S
O1807     Cu1815   2.003       .  S
O1807      C1817   1.278       .  A
O1808     Cu1815   2.005   1_545  S
O1808      C1818   1.276       .  A
O1809     Cu1815   2.003       .  S
O1809      C1819   1.277       .  A
O1810     Cu1815   2.005   1_545  S
O1810      C1820   1.277       .  A
O1811     Cu1816   2.002   1_545  S
O1811      C1820   1.277       .  A
O1812     Cu1816   2.001       .  S
O1812      C1819   1.277       .  A
O1813     Cu1816   2.014   1_545  S
O1813      C1818   1.278       .  A
O1814     Cu1816   2.013       .  S
O1814      C1817   1.277       .  A
Cu1815    Cu1816   2.375       .  S
C1817      C2002   1.488       .  S
C1818      C1986   1.470       .  S
C1821      C2018   1.497       .  S
C1821      C1822   1.400       .  A
C1821      C1826   1.407       .  A
C1822      C1823   1.407       .  A
C1822      H1827   1.079       .  S
C1823      C1877   1.495       .  S
C1823      C1824   1.405       .  A
C1824      C1825   1.407       .  A
C1824      H1828   1.079       .  S
C1825      C1879   1.501       .  S
C1825      C1826   1.409       .  A
C1826      H1829   1.077       .  S
C1830      C1989   1.478       .  S
C1830      C1831   1.399       .  A
C1830      C1835   1.395       .  A
C1831      C1832   1.412       .  A
C1831      H1836   1.081       .  S
C1832      C1886   1.501       .  S
C1832      C1833   1.407       .  A
C1833      C1834   1.408       .  A
C1833      H1837   1.078       .  S
C1834      C1888   1.495       .  S
C1834      C1835   1.408       .  A
C1835      H1838   1.081       .  S
C1839      C2037   1.479       .  S
C1840      C1841   1.413       .  A
C1840      H1845   1.080       .  S
C1841      C1861   1.504       .  S
C1841      C1842   1.410       .  A
C1842      C1843   1.409       .  A
C1842      H1846   1.079       .  S
C1843      C1859   1.491       .  S
C1843      C1844   1.403       .  A
C1844      H1847   1.083       .  S
C1848      C2005   1.496       .  S
C1848      C1849   1.400       .  A
C1848      C1853   1.406       .  A
C1849      C1850   1.405       .  A
C1849      H1854   1.080       .  S
C1850      C1870   1.491       .  S
C1850      C1851   1.406       .  A
C1851      C1852   1.409       .  A
C1851      H1855   1.078       .  S
C1852      C1868   1.508       .  S
C1852      C1853   1.412       .  A
C1853      H1856   1.077       .  S
C1857      C1970   1.493       .  S
C1857      C1858   1.402   1_455  A
C1858      C1859   1.402       .  A
C1858      H1863   1.082       .  S
C1860      C1861   1.409       .  A
C1860      H1864   1.079       .  S
C1861      C1862   1.414       .  A
C1862      H1865   1.078       .  S
C1866      C1957   1.483       .  S
C1866      C1867   1.401       .  A
C1867      C1868   1.414       .  A
C1867      H1872   1.077       .  S
C1869      C1870   1.406       .  A
C1869      H1873   1.078       .  S
C1870      C1871   1.403       .  A
C1871      H1874   1.082       .  S
C1875      C1938   1.489       .  S
C1875      C1880   1.403   1_456  A
C1876      H1881   1.079       .  S
C1878      C1879   1.407   1_455  A
C1878      H1882   1.078       .  S
C1880      H1883   1.082   1_554  S
C1884      C1922   1.485       .  S
C1884      C1889   1.396       .  A
C1885      C1886   1.413       .  A
C1885      H1890   1.080       .  S
C1887      C1888   1.407       .  A
C1887      H1891   1.078       .  S
C1888      C1889   1.407       .  A
C1889      H1892   1.081       .  S
O1893     Cu1901   1.994   1_554  S
O1893      C1903   1.275   1_554  A
O1894     Cu1901   1.991       .  S
O1894      C1904   1.274       .  A
O1895      C1905   1.278       .  A
O1896     Cu1901   2.005       .  S
O1896      C1906   1.277       .  A
O1897     Cu1902   2.001       .  S
O1899     Cu1902   2.017       .  S
O1900     Cu1902   2.019       .  S
C1903      C1973   1.482       .  S
C1904      C1941   1.480       .  S
C1905      C1920   1.462   1_655  S
C1906      C1919   1.462   1_655  S
O1907     Cu1915   2.012       .  S
O1907      C1917   1.278   1_655  A
O1908     Cu1915   2.013       .  S
O1908      C1918   1.279   1_655  A
O1909     Cu1915   2.001       .  S
O1909      C1919   1.276   1_655  A
O1910     Cu1915   1.999       .  S
O1910      C1920   1.276   1_655  A
O1911     Cu1916   2.005       .  S
O1912     Cu1916   2.006       .  S
O1913     Cu1916   2.008       .  S
O1914     Cu1916   2.006       .  S
C1917      C1954   1.475   1_455  S
C1918      C1925   1.478       .  S
C1921      C1926   1.409       .  A
C1921      H1928   1.083       .  S
C1922      C1923   1.420       .  A
C1923      C1924   1.405       .  A
C1923      C1930   1.522       .  S
C1924      C1925   1.401   1_655  A
C1924      H1929   1.083       .  S
C1926      C1927   1.518       .  S
C1927      F1931   1.384       .  S
C1927      F1932   1.382       .  S
C1927      F1933   1.382       .  S
C1930      F1934   1.382       .  S
C1930      F1935   1.381       .  S
C1930      F1936   1.385       .  S
C1937      C1942   1.402       .  A
C1937      H1944   1.082       .  S
C1939      C1940   1.406       .  A
C1939      C1946   1.520       .  S
C1940      H1945   1.084       .  S
C1942      C1943   1.522       .  S
C1943      F1947   1.384       .  S
C1943      F1948   1.383       .  S
C1943      F1949   1.382       .  S
C1946      F1950   1.382       .  S
C1946      F1951   1.383       .  S
C1946      F1952   1.385       .  S
C1953      C1958   1.409       .  A
C1953      H1960   1.084       .  S
C1954      C1955   1.416   1_655  A
C1955      C1956   1.403       .  A
C1955      C1962   1.520       .  S
C1956      C1957   1.404   1_455  A
C1956      H1961   1.084       .  S
C1958      C1959   1.520       .  S
C1959      F1963   1.385       .  S
C1959      F1964   1.383       .  S
C1962      F1967   1.381       .  S
C1962      F1968   1.385       .  S
C1969      C1974   1.403       .  A
C1969      H1976   1.083       .  S
C1971      C1972   1.407       .  A
C1971      C1978   1.520       .  S
C1972      H1977   1.085       .  S
C1973      C1974   1.420       .  A
C1974      C1975   1.523       .  S
C1975      F1979   1.385       .  S
C1975      F1980   1.383       .  S
C1978      F1983   1.383       .  S
C1978      F1984   1.385       .  S
C1985      C1986   1.399       .  A
C1985      C1990   1.405       .  A
C1985      H1992   1.084       .  S
C1986      C1987   1.414       .  A
C1987      C1988   1.409       .  A
C1987      C1994   1.515       .  S
C1988      C1989   1.402       .  A
C1988      H1993   1.083       .  S
C1989      C1990   1.416       .  A
C1990      C1991   1.518       .  S
C1991      F1995   1.383       .  S
C1991      F1996   1.382       .  S
C1991      F1997   1.383       .  S
C1994      F1998   1.384       .  S
C1994      F1999   1.382       .  S
C1994      F2000   1.382       .  S
C2001      C2002   1.404       .  A
C2001      C2006   1.405       .  A
C2001      H2008   1.083       .  S
C2002      C2003   1.419       .  A
C2003      C2004   1.409       .  A
C2003      C2010   1.520       .  S
C2004      C2005   1.409       .  A
C2004      H2009   1.081       .  S
C2005      C2006   1.425       .  A
C2006      C2007   1.524       .  S
C2007      F2011   1.385       .  S
C2007      F2012   1.382       .  S
C2007      F2013   1.382       .  S
C2010      F2014   1.383       .  S
C2010      F2015   1.382       .  S
C2010      F2016   1.385       .  S
C2017      C2022   1.407       .  A
C2017      H2024   1.081       .  S
C2018      C2019   1.426       .  A
C2019      C2020   1.404       .  A
C2019      C2026   1.523       .  S
C2020      C2021   1.402       .  A
C2020      H2025   1.083       .  S
C2022      C2023   1.521       .  S
C2023      F2027   1.385       .  S
C2023      F2028   1.383       .  S
C2026      F2031   1.383       .  S
C2026      F2032   1.385       .  S
C2033      C2034   1.401       .  A
C2033      C2038   1.403       .  A
C2033      H2040   1.083       .  S
C2035      C2036   1.408       .  A
C2035      C2042   1.518       .  S
C2036      H2041   1.083       .  S
C2037      C2038   1.417       .  A
C2038      C2039   1.520       .  S
C2039      F2043   1.385       .  S
C2039      F2044   1.381       .  S
C2039      F2045   1.381       .  S
C2042      F2046   1.382       .  S
C2042      F2047   1.383       .  S
C2042      F2048   1.385       .  S
