geometry optimzed in LAMMPS
_audit_creation_date              2020-12-01 
_audit_creation_method            'lammps2cif' 
_symmetry_space_group_name_H-M    'P1' 
_symmetry_Int_Tables_number       1 
_symmetry_cell_setting            triclinic 
loop_ 
_symmetry_equiv_pos_as_xyz 
  x,y,z 
_cell_length_a                    74.273988 
_cell_length_b                    74.33244194774035 
_cell_length_c                    74.37371806809557 
_cell_angle_alpha                 89.8562213553773 
_cell_angle_beta                  90.16358878241061 
_cell_angle_gamma                 90.12706038619152 
loop_ 
_atom_site_label 
_atom_site_type_symbol 
_atom_site_fract_x 
_atom_site_fract_y 
_atom_site_fract_z 
_atom_site_charge 
N1          N  0.15294205  0.47516398  0.14798426    -0.27000
N2          N  0.16386418  0.46597777  0.15868331    -0.34900
C3          C  0.16238374  0.44838040  0.15501665     0.01300
C4          C  0.14983994  0.44619159  0.14148887     0.07300
C5          C  0.14396713  0.46342855  0.13739526    -0.05800
H6          H  0.16976830  0.43787606  0.16192903     0.08000
H7          H  0.13415094  0.46717168  0.12728516     0.09200
Cu8        Cu  0.18045200  0.47678732  0.17825815     0.44200
Cu9        Cu  0.15124824  0.50328920  0.14813415     0.42000
Cu10       Cu  0.18142734  0.52422823  0.18071613     0.43900
N11         N  0.19700450  0.49033995  0.19605717    -0.34400
N12         N  0.19772333  0.50807234  0.19648036    -0.28700
C13         C  0.21026467  0.51320002  0.20846335    -0.04800
C14         C  0.21772042  0.49792999  0.21611422     0.07400
C15         C  0.20894565  0.48363403  0.20794672     0.01200
H16         H  0.21365276  0.52703832  0.21142607     0.08900
H17         H  0.21143378  0.46944759  0.21003143     0.08000
N18         N  0.16338735  0.53833328  0.16485535    -0.35900
N19         N  0.15260556  0.53105509  0.15268327    -0.28000
C20         C  0.14276460  0.54425213  0.14499644    -0.03300
C21         C  0.14747255  0.56052385  0.15290600     0.05300
C22         C  0.16056273  0.55615523  0.16541332     0.03400
H23         H  0.13259524  0.54207741  0.13477895     0.08500
H24         H  0.16764900  0.56530394  0.17427273     0.07400
N25         N  0.52144909  0.16558708  0.14616122    -0.27000
N26         N  0.52908038  0.17928436  0.15457415    -0.34900
C27         C  0.54664099  0.17991070  0.15042369     0.01300
C28         C  0.55043222  0.16584102  0.13895852     0.07300
C29         C  0.53415562  0.15693139  0.13659843    -0.05800
H30         H  0.55616191  0.18931484  0.15619796     0.08000
H31         H  0.53180458  0.14487802  0.12880074     0.09200
Cu32       Cu  0.51643411  0.19499852  0.17355966     0.44200
Cu33       Cu  0.49427557  0.15910844  0.14922961     0.42000
Cu34       Cu  0.47355889  0.17999246  0.18875363     0.43900
N35         N  0.50325881  0.20658729  0.19500318    -0.34400
N36         N  0.48756683  0.20081165  0.20098521    -0.28700
C37         C  0.48254388  0.21105576  0.21498081    -0.04800
C38         C  0.49582292  0.22390652  0.21804355     0.07400
C39         C  0.50872264  0.22058408  0.20502740     0.01200
H40         H  0.46988591  0.20951843  0.22195538     0.08900
H41         H  0.52125640  0.22773098  0.20297554     0.08000
N42         N  0.46033018  0.16263044  0.17136893    -0.35900
N43         N  0.46736601  0.15580360  0.15655933    -0.28000
C44         C  0.45428801  0.14723898  0.14731743    -0.03300
C45         C  0.43836574  0.14853691  0.15692017     0.05300
C46         C  0.44276139  0.15837351  0.17207400     0.03400
H47         H  0.45616363  0.14083400  0.13442930     0.08500
H48         H  0.43364309  0.16307232  0.18233354     0.07400
N49         N  0.15725648  0.15512200  0.52021543    -0.27000
N50         N  0.16637218  0.16800616  0.52849653    -0.34900
C51         C  0.16444537  0.16602612  0.54633482     0.01300
C52         C  0.15379246  0.15110163  0.54954536     0.07300
C53         C  0.14947496  0.14446345  0.53268145    -0.05800
H54         H  0.17050815  0.17475917  0.55627320     0.08000
H55         H  0.14093452  0.13304268  0.52967245     0.09200
Cu56       Cu  0.18175139  0.18767439  0.51590103     0.44200
Cu57       Cu  0.15513048  0.15314885  0.49235216     0.42000
Cu58       Cu  0.18203034  0.18629566  0.46833394     0.43900
N59         N  0.19803653  0.20438206  0.50052105    -0.34400
N60         N  0.19848920  0.20333763  0.48281378    -0.28700
C61         C  0.21086739  0.21491132  0.47647289    -0.04800
C62         C  0.21847149  0.22387074  0.49089954     0.07400
C63         C  0.20999832  0.21687762  0.50597176     0.01200
H64         H  0.21395475  0.21679158  0.46239693     0.08900
H65         H  0.21263478  0.22027568  0.51986784     0.08000
N66         N  0.16449472  0.16858749  0.45606454    -0.35900
N67         N  0.15494629  0.15614842  0.46450438    -0.28000
C68         C  0.14520904  0.14694416  0.45226576    -0.03300
C69         C  0.14874299  0.15411876  0.43541059     0.05300
C70         C  0.16097878  0.16780854  0.43839130     0.03400
H71         H  0.13591946  0.13616766  0.45546572     0.08500
H72         H  0.16702375  0.17653454  0.42841162     0.07400
N73         N  0.47144928  0.15733517  0.83587450    -0.27000
N74         N  0.46265303  0.16913372  0.82581348    -0.34900
C75         C  0.44495150  0.16766714  0.82891954     0.01300
C76         C  0.44227433  0.15422478  0.84142956     0.07300
C77         C  0.45933893  0.14781472  0.84549238    -0.05800
H78         H  0.43472533  0.17556015  0.82214781     0.08000
H79         H  0.46270338  0.13718361  0.85486562     0.09200
Cu80       Cu  0.47390700  0.18634765  0.80725712     0.44200
Cu81       Cu  0.49952215  0.15504118  0.83615710     0.42000
Cu82       Cu  0.52067012  0.18420122  0.80293224     0.43900
N83         N  0.48764847  0.20171858  0.78879921    -0.34400
N84         N  0.50531980  0.20101161  0.78743282    -0.28700
C85         C  0.51083382  0.21281172  0.77494937    -0.04800
C86         C  0.49580537  0.22134127  0.76807618     0.07400
C87         C  0.48128701  0.21390234  0.77704849     0.01200
H88         H  0.52473822  0.21492641  0.77115958     0.08900
H89         H  0.46723092  0.21740571  0.77550866     0.08000
N90         N  0.53450445  0.16726715  0.81969357    -0.35900
N91         N  0.52733693  0.15681817  0.83219026    -0.28000
C92         C  0.54077510  0.14806026  0.84074590    -0.03300
C93         C  0.55696692  0.15314148  0.83291747     0.05300
C94         C  0.55240629  0.16537142  0.81974977     0.03400
H95         H  0.53889600  0.13853097  0.85159056     0.08500
H96         H  0.56145868  0.17266702  0.81096235     0.07400
N97         N  0.16156026  0.47187463  0.83529318    -0.27000
N98         N  0.17430082  0.46448521  0.82536678    -0.34900
C99         C  0.17405564  0.44656667  0.82775746     0.01300
C100        C  0.16036348  0.44226325  0.83957996     0.07300
C101        C  0.15270104  0.45867475  0.84410749    -0.05800
H102        H  0.18276890  0.43727674  0.82079934     0.08000
H103        H  0.14151357  0.46087607  0.85309055     0.09200
Cu104      Cu  0.19043160  0.47831851  0.80733474     0.44200
Cu105      Cu  0.15667630  0.49963442  0.83582730     0.42000
Cu106      Cu  0.17811435  0.52369480  0.79887136     0.43900
N107        N  0.20280327  0.49403227  0.78793623    -0.34400
N108        N  0.19777600  0.51069060  0.78441854    -0.28700
C109        C  0.20826813  0.51749969  0.77137590    -0.04800
C110        C  0.22063182  0.50450012  0.76649743     0.07400
C111        C  0.21668884  0.48973886  0.77723432     0.01200
H112        H  0.20733807  0.53110341  0.76628211     0.08900
H113        H  0.22330760  0.47680849  0.77727116     0.08000
N114        N  0.16245285  0.53583943  0.81814888    -0.35900
N115        N  0.15519383  0.52755193  0.83212338    -0.28000
C116        C  0.14764274  0.54003395  0.84286507    -0.03300
C117        C  0.15026141  0.55688887  0.83514781     0.05300
C118        C  0.15961804  0.55359385  0.81948156     0.03400
H119        H  0.14080249  0.53704445  0.85534344     0.08500
H120        H  0.16470215  0.56346671  0.81005364     0.07400
N121        N  0.52044423  0.84659349  0.14925451    -0.27000
N122        N  0.52923863  0.83438348  0.15878330    -0.34900
C123        C  0.54695710  0.83614853  0.15578841     0.01300
C124        C  0.54957557  0.85027877  0.14398131     0.07300
C125        C  0.53247137  0.85665897  0.14010858    -0.05800
H126        H  0.55724084  0.82797582  0.16210237     0.08000
H127        H  0.52900263  0.86763131  0.13116479     0.09200
Cu128      Cu  0.51742169  0.81647355  0.17652534     0.44200
Cu129      Cu  0.49249832  0.84867723  0.14929502     0.42000
Cu130      Cu  0.47047864  0.82166386  0.18408843     0.43900
N131        N  0.50348788  0.80156875  0.19544595    -0.34400
N132        N  0.48617713  0.80391065  0.19864483    -0.28700
C133        C  0.48105117  0.79273468  0.21191694    -0.04800
C134        C  0.49588466  0.78281648  0.21728491     0.07400
C135        C  0.50986266  0.78872328  0.20649133     0.01200
H136        H  0.46744076  0.79165038  0.21697680     0.08900
H137        H  0.52369834  0.78419230  0.20679129     0.08000
N138        N  0.45706289  0.83831936  0.16628750    -0.35900
N139        N  0.46477941  0.84765993  0.15323980    -0.28000
C140        C  0.45188715  0.85619038  0.14373997    -0.03300
C141        C  0.43536894  0.85220768  0.15139898     0.05300
C142        C  0.43918960  0.84082136  0.16560026     0.03400
H143        H  0.45437477  0.86482862  0.13228703     0.08500
H144        H  0.42964335  0.83444675  0.17457321     0.07400
N145        N  0.83307235  0.53294651  0.14868577    -0.27000
N146        N  0.82507607  0.53988830  0.16293155    -0.34900
C147        C  0.82734830  0.55779618  0.16294662     0.01300
C148        C  0.83729502  0.56258392  0.14801157     0.07300
C149        C  0.84059472  0.54648216  0.13915051    -0.05800
H150        H  0.82174302  0.56668475  0.17293116     0.08000
H151        H  0.84808755  0.54472457  0.12684641     0.09200
Cu152      Cu  0.81035574  0.52558118  0.18161486     0.44200
Cu153      Cu  0.83346096  0.50522147  0.14350887     0.42000
Cu154      Cu  0.80444160  0.47916742  0.17404585     0.43900
N155        N  0.79297100  0.51014208  0.19676747    -0.34400
N156        N  0.79006513  0.49295277  0.19343572    -0.28700
C157        C  0.77718436  0.48682848  0.20458099    -0.04800
C158        C  0.77184629  0.50090224  0.21553130     0.07400
C159        C  0.78222524  0.51544655  0.21024729     0.01200
H160        H  0.77226723  0.47313733  0.20482812     0.08900
H161        H  0.78165966  0.52900023  0.21545561     0.08000
N162        N  0.82182963  0.46793489  0.15546833    -0.35900
N163        N  0.83207322  0.47703178  0.14406737    -0.28000
C164        C  0.84176558  0.46518188  0.13436389    -0.03300
C165        C  0.83758718  0.44792738  0.14020547     0.05300
C166        C  0.82491112  0.45025243  0.15353709     0.03400
H167        H  0.85160008  0.46886124  0.12429530     0.08500
H168        H  0.81842874  0.43983175  0.16138262     0.07400
N169        N  0.14893339  0.83804435  0.46912697    -0.27000
N170        N  0.15974483  0.82748750  0.45980918    -0.34900
C171        C  0.15716337  0.83044437  0.44220074     0.01300
C172        C  0.14406161  0.84344807  0.44022947     0.07300
C173        C  0.13897261  0.84787895  0.45756359    -0.05800
H174        H  0.16448853  0.82373985  0.43161748     0.08000
H175        H  0.12932933  0.85799918  0.46147904     0.09200
Cu176      Cu  0.17838605  0.81000688  0.47069250     0.44200
Cu177      Cu  0.14936842  0.83946590  0.49706396     0.42000
Cu178      Cu  0.18319063  0.81048060  0.51798919     0.43900
N179        N  0.19712204  0.79446299  0.48404994    -0.34400
N180        N  0.19926012  0.79504743  0.50165476    -0.28700
C181        C  0.21262821  0.78387085  0.50646212    -0.04800
C182        C  0.21913085  0.77577544  0.49107079     0.07400
C183        C  0.20893651  0.78274247  0.47711128     0.01200
H184        H  0.21693436  0.78150669  0.52015985     0.08900
H185        H  0.21011629  0.77966113  0.46295587     0.08000
N186        N  0.16522577  0.82613365  0.53201010    -0.35900
N187        N  0.15326517  0.83710899  0.52468578    -0.28000
C188        C  0.14415682  0.84538837  0.53792831    -0.03300
C189        C  0.15052753  0.83899147  0.55424989     0.05300
C190        C  0.16387431  0.82687600  0.54996258     0.03400
H191        H  0.13345609  0.85502908  0.53582964     0.08500
H192        H  0.17220605  0.81929185  0.55921299     0.07400
O193        O  0.52504350  0.50129036  0.67794265    -0.72700
O194        O  0.47189078  0.49481594  0.67764430    -0.73700
O195        O  0.49540066  0.52447716  0.67702482    -0.62300
O196        O  0.50172233  0.47167956  0.67858737    -0.70700
O197        O  0.50105024  0.47173937  0.70839028    -0.70200
O198        O  0.49595222  0.52585357  0.70675863    -0.61500
O199        O  0.47131356  0.49638528  0.70740635    -0.74000
O200        O  0.52575350  0.50151293  0.70770532    -0.72800
Cu201      Cu  0.49851378  0.49801463  0.67686418     1.04600
Cu202      Cu  0.49850378  0.49886607  0.70870043     1.04300
C203        C  0.53392428  0.50253849  0.69259501     0.93500
C204        C  0.46306900  0.49485758  0.69234424     0.92700
C205        C  0.49480600  0.53367648  0.69145463     0.84800
C206        C  0.50245359  0.46325060  0.69351590     0.91100
O207        O  0.49944132  0.53242648  0.28125656    -0.72700
O208        O  0.49431155  0.47825094  0.28003831    -0.73700
O209        O  0.46962134  0.50785313  0.28028280    -0.62300
O210        O  0.52396276  0.50280661  0.28123851    -0.70700
O211        O  0.52296052  0.50162223  0.31099331    -0.70200
O212        O  0.46980749  0.50809762  0.31007365    -0.61500
O213        O  0.49296056  0.47802645  0.30981279    -0.74000
O214        O  0.49987644  0.53142977  0.31105100    -0.72800
Cu215      Cu  0.49683823  0.50535664  0.27960696     1.04600
Cu216      Cu  0.49636711  0.50475035  0.31145253     1.04300
C217        C  0.50081612  0.54041234  0.29642071     0.93500
C218        C  0.49265500  0.46962164  0.29484141     0.92700
C219        C  0.46118790  0.50896081  0.29522989     0.84800
C220        C  0.53200231  0.50150025  0.29643483     0.91100
O221        O  0.49784455  0.28929138  0.46562601    -0.72700
O222        O  0.49317071  0.28750276  0.51977955    -0.73700
O223        O  0.46849788  0.28825776  0.49038702    -0.62300
O224        O  0.52267249  0.28869986  0.49531587    -0.70700
O225        O  0.52177748  0.31844368  0.49693631    -0.70200
O226        O  0.46887262  0.31806621  0.49023185    -0.61500
O227        O  0.49191632  0.31730683  0.52002645    -0.74000
O228        O  0.49857237  0.31906840  0.46686125    -0.72800
Cu229      Cu  0.49559325  0.28732438  0.49270647     1.04600
Cu230      Cu  0.49531432  0.31918164  0.49351445     1.04300
C231        C  0.49888052  0.30455890  0.45770207     0.93500
C232        C  0.49146445  0.30227822  0.52837212     0.92700
C233        C  0.46014766  0.30327872  0.48966368     0.84800
C234        C  0.53070803  0.30381850  0.49727819     0.91100
O235        O  0.70719542  0.52952597  0.49242810    -0.72700
O236        O  0.70834121  0.47512714  0.49495690    -0.73700
O237        O  0.70730200  0.50096343  0.46645709    -0.62300
O238        O  0.70835741  0.50343093  0.52078486    -0.70700
O239        O  0.67854632  0.50305756  0.52067874    -0.70200
O240        O  0.67750356  0.50012804  0.46730391    -0.61500
O241        O  0.67849917  0.47499718  0.49577185    -0.74000
O242        O  0.67740147  0.52832675  0.49250442    -0.72800
Cu243      Cu  0.70891299  0.50231429  0.49360004     1.04600
Cu244      Cu  0.67703393  0.50162876  0.49404683     1.04300
C245        C  0.69193081  0.53749850  0.49217255     0.93500
C246        C  0.69343173  0.46654687  0.49605707     0.92700
C247        C  0.69212057  0.50005282  0.45832253     0.84800
C248        C  0.69341661  0.50339976  0.52930650     0.91100
O249        O  0.49348909  0.71855912  0.46834938    -0.72700
O250        O  0.49681723  0.71553788  0.52267687    -0.73700
O251        O  0.52234132  0.71820456  0.49392334    -0.62300
O252        O  0.46793961  0.71580337  0.49726936    -0.70700
O253        O  0.46977546  0.68606786  0.49646236    -0.70200
O254        O  0.52280745  0.68848610  0.49138753    -0.61500
O255        O  0.49895588  0.68586825  0.52069378    -0.74000
O256        O  0.49361910  0.68874562  0.46741614    -0.72800
Cu257      Cu  0.49511126  0.71815253  0.49562371     1.04600
Cu258      Cu  0.49633548  0.68634802  0.49395366     1.04300
C259        C  0.49288978  0.70391231  0.45935414     0.93500
C260        C  0.49845587  0.70012910  0.53021444     0.92700
C261        C  0.53107285  0.70353678  0.49184721     0.84800
C262        C  0.46032427  0.70033703  0.49747426     0.91100
O263        O  0.31123508  0.49577251  0.46461213    -0.72700
O264        O  0.31253941  0.50522169  0.51721365    -0.73700
O265        O  0.31248579  0.47418496  0.49555185    -0.62300
O266        O  0.31125262  0.52684372  0.48625654    -0.70700
O267        O  0.28147578  0.52696740  0.48787327    -0.70200
O268        O  0.28270033  0.47292131  0.49558487    -0.61500
O269        O  0.28278074  0.50385983  0.51862664    -0.74000
O270        O  0.28138450  0.49611841  0.46469192    -0.72800
Cu271      Cu  0.31281791  0.50053316  0.49087621     1.04600
Cu272      Cu  0.28095839  0.49994100  0.49170954     1.04300
C273        C  0.29627431  0.49449873  0.45622889     0.93500
C274        C  0.29804986  0.50595663  0.52637088     0.92700
C275        C  0.29797216  0.46504573  0.49682284     0.84800
C276        C  0.29637965  0.53541241  0.48591332     0.91100
N277        N  0.35338047  0.30601366  0.49224711    -0.27000
N278        N  0.35664521  0.32181145  0.49966682    -0.34900
C279        C  0.37446351  0.32446638  0.50058517     0.01300
C280        C  0.38295575  0.30964217  0.49334857     0.07300
C281        C  0.36917957  0.29805213  0.48837336    -0.05800
H282        H  0.38070282  0.33651699  0.50584942     0.08000
H283        H  0.37051143  0.28516823  0.48178436     0.09200
Cu284      Cu  0.33715598  0.34033663  0.50610985     0.44200
Cu285      Cu  0.32738577  0.29727897  0.48698010     0.42000
Cu286      Cu  0.29226715  0.33248231  0.49217002     0.43900
N287        N  0.31810339  0.36038108  0.50518714    -0.34400
N288        N  0.30160030  0.35803371  0.49904320    -0.28700
C289        C  0.29354972  0.37424118  0.49773907    -0.04800
C290        C  0.30570956  0.38743709  0.50326087     0.07400
C291        C  0.32103475  0.37792266  0.50810177     0.01200
H292        H  0.28014201  0.37630521  0.49243167     0.08900
H293        H  0.33370789  0.38314996  0.51294924     0.08000
N294        N  0.28733865  0.30512401  0.48822249    -0.35900
N295        N  0.29984825  0.29267985  0.48587304    -0.28000
C296        C  0.29186609  0.27646913  0.48461484    -0.03300
C297        C  0.27349018  0.27873369  0.48646646     0.05300
C298        C  0.27112425  0.29705188  0.48875790     0.03400
H299        H  0.29903719  0.26385909  0.48346576     0.08500
H300        H  0.25855577  0.30398679  0.49105604     0.07400
N301        N  0.30128349  0.64211010  0.48821604    -0.27000
N302        N  0.31758051  0.63819275  0.49415129    -0.34900
C303        C  0.31975023  0.62030720  0.49406676     0.01300
C304        C  0.30407108  0.61246240  0.48772626     0.07300
C305        C  0.29250814  0.62669570  0.48433850    -0.05800
H306        H  0.33196905  0.61355579  0.49819546     0.08000
H307        H  0.27899711  0.62595007  0.47890207     0.09200
Cu308      Cu  0.33687218  0.65714012  0.50065133     0.44200
Cu309      Cu  0.29298203  0.66847997  0.48501459     0.42000
Cu310      Cu  0.32818772  0.70346554  0.49226197     0.43900
N311        N  0.35650485  0.67677858  0.50204354    -0.34400
N312        N  0.35366765  0.69390948  0.49833942    -0.28700
C313        C  0.36958772  0.70263855  0.49823653    -0.04800
C314        C  0.38310103  0.69027547  0.50188273     0.07400
C315        C  0.37418013  0.67408615  0.50446385     0.01200
H316        H  0.37127017  0.71668161  0.49478223     0.08900
H317        H  0.38002915  0.66108482  0.50728270     0.08000
N318        N  0.30106787  0.70842889  0.48789941    -0.35900
N319        N  0.28862974  0.69598226  0.48495999    -0.28000
C320        C  0.27248197  0.70396211  0.48355830    -0.03300
C321        C  0.27481462  0.72225898  0.48586360     0.05300
C322        C  0.29308332  0.72461013  0.48861948     0.03400
H323        H  0.25988141  0.69681853  0.48193520     0.08500
H324        H  0.30004975  0.73712118  0.49132706     0.07400
N325        N  0.35397528  0.50691899  0.29835076    -0.27000
N326        N  0.35770263  0.50529540  0.31564100    -0.34900
C327        C  0.37550607  0.50684372  0.31813084     0.01300
C328        C  0.38363737  0.50949875  0.30160830     0.07300
C329        C  0.36950823  0.50943713  0.28928716    -0.05800
H330        H  0.38207513  0.50558488  0.33106927     0.08000
H331        H  0.37037790  0.51114891  0.27487629     0.09200
Cu332      Cu  0.33883170  0.50007655  0.33527642     0.44200
Cu333      Cu  0.32763211  0.50506600  0.28886293     0.42000
Cu334      Cu  0.29271639  0.49489187  0.32355955     0.43900
N335        N  0.31909459  0.49440721  0.35391590    -0.34400
N336        N  0.30183831  0.49283539  0.34991728    -0.28700
C337        C  0.29252360  0.49012144  0.36523108    -0.04800
C338        C  0.30464053  0.48972727  0.37947903     0.07400
C339        C  0.32132022  0.49256588  0.37171611     0.01200
H340        H  0.27803805  0.48869583  0.36594948     0.08900
H341        H  0.33412596  0.49397968  0.37854916     0.08000
N342        N  0.28797450  0.49730858  0.29608897    -0.35900
N343        N  0.30025310  0.50138264  0.28383612    -0.28000
C344        C  0.29223721  0.50219670  0.26761242    -0.03300
C345        C  0.27413563  0.49829459  0.26970219     0.05300
C346        C  0.27193854  0.49520110  0.28790211     0.03400
H347        H  0.29917595  0.50510742  0.25517308     0.08500
H348        H  0.25952577  0.49194535  0.29476179     0.07400
N349        N  0.30434345  0.51001777  0.63303107    -0.27000
N350        N  0.32148908  0.50710195  0.62953427    -0.34900
C351        C  0.32403869  0.50732584  0.61172482     0.01300
C352        C  0.30771144  0.51070065  0.60336031     0.07300
C353        C  0.29542272  0.51216368  0.61735007    -0.05800
H354        H  0.33687175  0.50473910  0.60544439     0.08000
H355        H  0.28112126  0.51471085  0.61624188     0.09200
Cu356      Cu  0.34095126  0.50299541  0.64884172     0.44200
Cu357      Cu  0.29506168  0.51089087  0.65932235     0.42000
Cu358      Cu  0.33058116  0.50662012  0.69510956     0.43900
N359        N  0.36000548  0.50007142  0.66876238    -0.34400
N360        N  0.35656074  0.50165833  0.68607342    -0.28700
C361        C  0.37204732  0.49953650  0.69534379    -0.04800
C362        C  0.38584486  0.49630250  0.68317015     0.07400
C363        C  0.37759312  0.49689380  0.66646115     0.01200
H364        H  0.37316671  0.50031403  0.70983898     0.08900
H365        H  0.38390650  0.49576881  0.65342967     0.08000
N366        N  0.30310502  0.50967613  0.69952756    -0.35900
N367        N  0.29058254  0.51122062  0.68689189    -0.28000
C368        C  0.27434516  0.51215493  0.69476346    -0.03300
C369        C  0.27668522  0.51107455  0.71318814     0.05300
C370        C  0.29507625  0.50947680  0.71570248     0.03400
H371        H  0.26170878  0.51277092  0.68750275     0.08500
H372        H  0.30213259  0.50794592  0.72836690     0.07400
N373        N  0.63744010  0.69824303  0.49599387    -0.27000
N374        N  0.63330286  0.68103170  0.49750842    -0.34900
C375        C  0.61548522  0.67895570  0.49561173     0.01300
C376        C  0.60790644  0.69569129  0.49277081     0.07300
C377        C  0.62220418  0.70770362  0.49328860    -0.05800
H378        H  0.60858069  0.66614550  0.49636735     0.08000
H379        H  0.62163836  0.72212499  0.49139167     0.09200
Cu380      Cu  0.65193438  0.66089388  0.50108293     0.44200
Cu381      Cu  0.66394546  0.70692602  0.49646124     0.42000
Cu382      Cu  0.69874512  0.67084257  0.49746331     0.43900
N383        N  0.67148820  0.64135679  0.50034264    -0.34400
N384        N  0.68882793  0.64465449  0.49844974    -0.28700
C385        C  0.69758093  0.62887135  0.49656847    -0.04800
C386        C  0.68496457  0.61498807  0.49731104     0.07400
C387        C  0.66863327  0.62357357  0.49983458     0.01200
H388        H  0.71171891  0.62776732  0.49415119     0.08900
H389        H  0.65543970  0.61746806  0.50083170     0.08000
N390        N  0.70396276  0.69835413  0.49611974    -0.35900
N391        N  0.69153290  0.71109250  0.49552009    -0.28000
C392        C  0.69965477  0.72718671  0.49398173    -0.03300
C393        C  0.71806755  0.72453609  0.49363032     0.05300
C394        C  0.72031540  0.70611118  0.49515848     0.03400
H395        H  0.69260475  0.73989020  0.49339050     0.08500
H396        H  0.73290498  0.69882268  0.49522505     0.07400
N397        N  0.50437303  0.64741634  0.30043570    -0.27000
N398        N  0.50388465  0.64381577  0.31780974    -0.34900
C399        C  0.50459514  0.62596292  0.32028583     0.01300
C400        C  0.50549507  0.61771030  0.30365287     0.07300
C401        C  0.50531171  0.63178751  0.29130160    -0.05800
H402        H  0.50398420  0.61946278  0.33330229     0.08000
H403        H  0.50586705  0.63080761  0.27680634     0.09200
Cu404      Cu  0.50141589  0.66316725  0.33744917     0.44200
Cu405      Cu  0.50322949  0.67376898  0.29101791     0.42000
Cu406      Cu  0.49697415  0.70946417  0.32604596     0.43900
N407        N  0.49809317  0.68313807  0.35632630    -0.34400
N408        N  0.49649148  0.70041611  0.35252431    -0.28700
C409        C  0.49431395  0.70958864  0.36801894    -0.04800
C410        C  0.49429891  0.69731697  0.38214539     0.07400
C411        C  0.49690590  0.68075753  0.37413207     0.01200
H412        H  0.49249088  0.72399490  0.36889725     0.08900
H413        H  0.49801969  0.66782351  0.38072569     0.08000
N414        N  0.49837057  0.71379867  0.29842185    -0.35900
N415        N  0.50092720  0.70125445  0.28606880    -0.28000
C416        C  0.50139882  0.70912199  0.26976822    -0.03300
C417        C  0.49896906  0.72745824  0.27189830     0.05300
C418        C  0.49701849  0.72988447  0.29023521     0.03400
H419        H  0.50298975  0.70189054  0.25727691     0.08500
H420        H  0.49496820  0.74246704  0.29719652     0.07400
N421        N  0.49667987  0.69225910  0.63668301    -0.27000
N422        N  0.49173192  0.67565370  0.63280962    -0.34900
C423        C  0.49208715  0.67337917  0.61491452     0.01300
C424        C  0.49733569  0.68943774  0.60707321     0.07300
C425        C  0.50000175  0.70120167  0.62126519    -0.05800
H426        H  0.48862037  0.66099269  0.60812681     0.08000
H427        H  0.50436594  0.71507020  0.62046508     0.09200
Cu428      Cu  0.48547701  0.65687010  0.65224293     0.44200
Cu429      Cu  0.49920750  0.70081162  0.66306720     0.42000
Cu430      Cu  0.49578516  0.66614848  0.69882094     0.43900
N431        N  0.48532164  0.63775065  0.67230951    -0.34400
N432        N  0.49016997  0.64058519  0.68915331    -0.28700
C433        C  0.49151607  0.62460271  0.69763791    -0.04800
C434        C  0.48728134  0.61106260  0.68545012     0.07400
C435        C  0.48324286  0.62008577  0.66962938     0.01200
H436        H  0.49622541  0.62304543  0.71131918     0.08900
H437        H  0.47990773  0.61433196  0.65670979     0.08000
N438        N  0.49847028  0.69358121  0.70331625    -0.35900
N439        N  0.49985679  0.70585317  0.69046476    -0.28000
C440        C  0.50052874  0.72223712  0.69798552    -0.03300
C441        C  0.49930740  0.72030034  0.71643387     0.05300
C442        C  0.49809046  0.70191927  0.71934603     0.03400
H443        H  0.50113429  0.73470347  0.69047194     0.08500
H444        H  0.49685467  0.69504847  0.73212161     0.07400
N445        N  0.69001298  0.35986564  0.49408311    -0.27000
N446        N  0.67268862  0.36332147  0.49224492    -0.34900
C447        C  0.66998919  0.38108305  0.49323122     0.01300
C448        C  0.68641537  0.38941299  0.49594595     0.07300
C449        C  0.69892072  0.37555072  0.49620070    -0.05800
H450        H  0.65691568  0.38737755  0.49214948     0.08000
H451        H  0.71329202  0.37672356  0.49834369     0.09200
Cu452      Cu  0.65303414  0.34400177  0.49062772     0.44200
Cu453      Cu  0.69942422  0.33358064  0.49501635     0.42000
Cu454      Cu  0.66377678  0.29869062  0.50126711     0.43900
N455        N  0.63387311  0.32457974  0.49484751    -0.34400
N456        N  0.63750436  0.30773746  0.49912973    -0.28700
C457        C  0.62189964  0.29885439  0.50178914    -0.04800
C458        C  0.60786639  0.31088276  0.49917878     0.07400
C459        C  0.61603240  0.32701297  0.49478639     0.01200
H460        H  0.62091425  0.28486989  0.50571845     0.08900
H461        H  0.60951807  0.33968013  0.49178540     0.08000
N462        N  0.69120863  0.29375414  0.50011466    -0.35900
N463        N  0.70383463  0.30604629  0.49729630    -0.28000
C464        C  0.71988367  0.29780573  0.49621107    -0.03300
C465        C  0.71726955  0.27950546  0.49852609     0.05300
C466        C  0.69895215  0.27745779  0.50107137     0.03400
H467        H  0.73253654  0.30471333  0.49401760     0.08500
H468        H  0.69167067  0.26496334  0.50292632     0.07400
N469        N  0.69071965  0.49115544  0.35158594    -0.27000
N470        N  0.67405408  0.48586651  0.35484033    -0.34900
C471        C  0.67129237  0.48550111  0.37262131     0.01300
C472        C  0.68694478  0.49082989  0.38120098     0.07300
C473        C  0.69909123  0.49421872  0.36741600    -0.05800
H474        H  0.65852737  0.48220851  0.37879481     0.08000
H475        H  0.71264092  0.49945757  0.36872277     0.09200
Cu476      Cu  0.65456932  0.48206967  0.33548611     0.44200
Cu477      Cu  0.69995316  0.49535705  0.32548027     0.42000
Cu478      Cu  0.66453105  0.49225686  0.29016405     0.43900
N479        N  0.63491281  0.48480233  0.31612232    -0.34400
N480        N  0.63833491  0.48885589  0.29919175    -0.28700
C481        C  0.62264563  0.49193485  0.29057771    -0.04800
C482        C  0.60872440  0.48986998  0.30283782     0.07400
C483        C  0.61709224  0.48527365  0.31884698     0.01200
H484        H  0.62157707  0.49647013  0.27678319     0.08900
H485        H  0.61077834  0.48318609  0.33178492     0.08000
N486        N  0.69179755  0.49617880  0.28539609    -0.35900
N487        N  0.70443442  0.49766565  0.29790759    -0.28000
C488        C  0.72047618  0.49989663  0.28981267    -0.03300
C489        C  0.71784364  0.49969373  0.27135692     0.05300
C490        C  0.69950065  0.49728313  0.26910726     0.03400
H491        H  0.73319145  0.50084693  0.29688841     0.08500
H492        H  0.69223089  0.49625062  0.25651519     0.07400
N493        N  0.64134170  0.50776892  0.68904620    -0.27000
N494        N  0.63815990  0.51335513  0.67252024    -0.34900
C495        C  0.62038522  0.51528422  0.67019229     0.01300
C496        C  0.61161645  0.51057348  0.68603677     0.07300
C497        C  0.62554986  0.50591585  0.69774666    -0.05800
H498        H  0.61443273  0.51916948  0.65747700     0.08000
H499        H  0.62447424  0.50087466  0.71133891     0.09200
Cu500      Cu  0.65781590  0.51538192  0.65304466     0.44200
Cu501      Cu  0.66729682  0.50198235  0.69755107     0.42000
Cu502      Cu  0.70239356  0.49876428  0.66212548     0.43900
N503        N  0.67706986  0.51152230  0.63347526    -0.34400
N504        N  0.69335331  0.50500457  0.63639344    -0.28700
C505        C  0.70157291  0.50254566  0.62043181    -0.04800
C506        C  0.68972431  0.50763403  0.60688338     0.07400
C507        C  0.67441910  0.51331208  0.61574795     0.01200
H508        H  0.71476429  0.49662400  0.61882146     0.08900
H509        H  0.66192852  0.51783517  0.60974980     0.08000
N510        N  0.70704903  0.49619416  0.68959812    -0.35900
N511        N  0.69454736  0.49786064  0.70214305    -0.28000
C512        C  0.70246501  0.49742984  0.71839163    -0.03300
C513        C  0.72078119  0.49523357  0.71605675     0.05300
C514        C  0.72321401  0.49443060  0.69762960     0.03400
H515        H  0.69540737  0.49903772  0.73099062     0.08500
H516        H  0.73588431  0.49367584  0.69053647     0.07400
N517        N  0.49521714  0.31000802  0.35073676    -0.27000
N518        N  0.49402694  0.32737732  0.35405987    -0.34900
C519        C  0.49505051  0.33014576  0.37182631     0.01300
C520        C  0.49721137  0.31370017  0.38035198     0.07300
C521        C  0.49705794  0.30114569  0.36649484    -0.05800
H522        H  0.49414087  0.34327216  0.37796350     0.08000
H523        H  0.49858394  0.28672923  0.36773067     0.09200
Cu524      Cu  0.49205570  0.34670639  0.33431685     0.44200
Cu525      Cu  0.49501202  0.30060650  0.32439796     0.42000
Cu526      Cu  0.49609262  0.33581477  0.28782484     0.43900
N527        N  0.49165801  0.36576097  0.31421897    -0.34400
N528        N  0.49336793  0.36228120  0.29691438    -0.28700
C529        C  0.49284396  0.37800671  0.28775650    -0.04800
C530        C  0.49062161  0.39196063  0.30003646     0.07400
C531        C  0.48998225  0.38351749  0.31661486     0.01200
H532        H  0.49380194  0.37912451  0.27328616     0.08900
H533        H  0.48875324  0.38981517  0.32965055     0.08000
N534        N  0.49704601  0.30793739  0.28394741    -0.35900
N535        N  0.49603504  0.29564285  0.29686162    -0.28000
C536        C  0.49602689  0.27919798  0.28937530    -0.03300
C537        C  0.49730994  0.28109096  0.27092793     0.05300
C538        C  0.49795170  0.29949467  0.26796594     0.03400
H539        H  0.49524580  0.26672756  0.29687869     0.08500
H540        H  0.49847002  0.30629997  0.25509817     0.07400
N541        N  0.50087630  0.35681651  0.68798174    -0.27000
N542        N  0.49950333  0.36098417  0.67078052    -0.34900
C543        C  0.50074605  0.37884744  0.66886131     0.01300
C544        C  0.50295518  0.38642460  0.68569477     0.07300
C545        C  0.50291320  0.37203216  0.69758451    -0.05800
H546        H  0.49982820  0.38580675  0.65610050     0.08000
H547        H  0.50450832  0.37249395  0.71203853     0.09200
Cu548      Cu  0.49570521  0.34246931  0.65056740     0.44200
Cu549      Cu  0.49985014  0.33045811  0.69663015     0.42000
Cu550      Cu  0.49185672  0.29600513  0.66097883     0.43900
N551        N  0.49183139  0.32295413  0.63132888    -0.34400
N552        N  0.49067469  0.30558778  0.63486268    -0.28700
C553        C  0.48865112  0.29656318  0.61928568    -0.04800
C554        C  0.48826330  0.30900649  0.60535280     0.07400
C555        C  0.49044917  0.32555152  0.61355746     0.01200
H556        H  0.48745831  0.28210144  0.61821170     0.08900
H557        H  0.49148311  0.33856463  0.60710245     0.08000
N558        N  0.49349956  0.29099837  0.68832944    -0.35900
N559        N  0.49696104  0.30315448  0.70087008    -0.28000
C560        C  0.49778562  0.29495896  0.71694603    -0.03300
C561        C  0.49440764  0.27689629  0.71442288     0.05300
C562        C  0.49174134  0.27480383  0.69618194     0.03400
H563        H  0.50046315  0.30170324  0.72954691     0.08500
H564        H  0.48916472  0.26239010  0.68906740     0.07400
N565        N  0.83923410  0.84363449  0.51985638    -0.27000
N566        N  0.83055981  0.82998645  0.52732363    -0.34900
C567        C  0.83431306  0.82943632  0.54495694     0.01300
C568        C  0.84590518  0.84341408  0.54897912     0.07300
C569        C  0.84866642  0.85226046  0.53275290    -0.05800
H570        H  0.82837973  0.81994412  0.55428218     0.08000
H571        H  0.85680487  0.86414350  0.53051404     0.09200
Cu572      Cu  0.81269102  0.81324313  0.51425143     0.44200
Cu573      Cu  0.83714463  0.84992395  0.49253963     0.42000
Cu574      Cu  0.80125723  0.82463702  0.46964736     0.43900
N575        N  0.79368197  0.79914746  0.49975403    -0.34400
N576        N  0.78901929  0.80360948  0.48321165    -0.28700
C577        C  0.77610868  0.79226950  0.47745761    -0.04800
C578        C  0.77259664  0.77997947  0.49106709     0.07400
C579        C  0.78396521  0.78483667  0.50502908     0.01200
H580        H  0.76988695  0.79283607  0.46429724     0.08900
H581        H  0.78484636  0.77875182  0.51822217     0.08000
N582        N  0.81744314  0.84374663  0.45743300    -0.35900
N583        N  0.83088214  0.85248120  0.46524438    -0.28000
C584        C  0.83949691  0.86233455  0.45265997    -0.03300
C585        C  0.83088842  0.85980950  0.43625853     0.05300
C586        C  0.81702381  0.84792828  0.43988138     0.03400
H587        H  0.85131210  0.87050363  0.45520677     0.08500
H588        H  0.80784795  0.84192788  0.43028505     0.07400
N589        N  0.46865549  0.83717162  0.83869101    -0.27000
N590        N  0.46074169  0.82376938  0.83004225    -0.34900
C591        C  0.44312440  0.82361594  0.83404483     0.01300
C592        C  0.43961346  0.83774080  0.84555876     0.07300
C593        C  0.45612877  0.84607198  0.84823775    -0.05800
H594        H  0.43340880  0.81442166  0.82825791     0.08000
H595        H  0.45883667  0.85782814  0.85636337     0.09200
Cu596      Cu  0.47318234  0.80762821  0.81116038     0.44200
Cu597      Cu  0.49598802  0.84314250  0.83642000     0.42000
Cu598      Cu  0.51741309  0.82115860  0.79857119     0.43900
N599        N  0.48711158  0.79591176  0.79017933    -0.34400
N600        N  0.50327873  0.80134809  0.78520525    -0.28700
C601        C  0.50895988  0.79114898  0.77147109    -0.04800
C602        C  0.49569526  0.77861294  0.76757468     0.07400
C603        C  0.48203144  0.78204993  0.77974802     0.01200
H604        H  0.52212163  0.79229498  0.76539698     0.08900
H605        H  0.46939209  0.77491053  0.78107117     0.08000
N606        N  0.53058871  0.83834139  0.81595431    -0.35900
N607        N  0.52317127  0.84597684  0.83014430    -0.28000
C608        C  0.53601733  0.85502647  0.83924895    -0.03300
C609        C  0.55219568  0.85311894  0.83016886     0.05300
C610        C  0.54818829  0.84239859  0.81552912     0.03400
H611        H  0.53377245  0.86231507  0.85159156     0.08500
H612        H  0.55749880  0.83721170  0.80569025     0.07400
N613        N  0.83879997  0.52978823  0.83704207    -0.27000
N614        N  0.82482855  0.53706804  0.82872575    -0.34900
C615        C  0.82442011  0.55476599  0.83225173     0.01300
C616        C  0.83883836  0.55897384  0.84330141     0.07300
C617        C  0.84775718  0.54280183  0.84595768    -0.05800
H618        H  0.81463615  0.56398172  0.82661780     0.08000
H619        H  0.85983467  0.54062853  0.85384353     0.09200
Cu620      Cu  0.80745850  0.52335982  0.81175403     0.44200
Cu621      Cu  0.84488647  0.50246405  0.83581327     0.42000
Cu622      Cu  0.81819925  0.47750741  0.80307839     0.43900
N623        N  0.79368232  0.50790286  0.79310895    -0.34400
N624        N  0.79793324  0.49103947  0.78962570    -0.28700
C625        C  0.78714063  0.48482246  0.77649304    -0.04800
C626        C  0.77542539  0.49843594  0.77148043     0.07400
C627        C  0.78002711  0.51290544  0.78231421     0.01200
H628        H  0.78772405  0.47133675  0.77110614     0.08900
H629        H  0.77427911  0.52625337  0.78208850     0.08000
N630        N  0.83760240  0.46605236  0.81944948    -0.35900
N631        N  0.84699953  0.47481523  0.83177868    -0.28000
C632        C  0.85740377  0.46295160  0.84075202    -0.03300
C633        C  0.85456968  0.44601787  0.83348629     0.05300
C634        C  0.84191370  0.44853900  0.82006744     0.03400
H635        H  0.86634940  0.46639165  0.85172561     0.08500
H636        H  0.83576943  0.43828243  0.81173668     0.07400
N637        N  0.83811560  0.15793334  0.51674689    -0.27000
N638        N  0.82870965  0.16981514  0.52600570    -0.34900
C639        C  0.83368140  0.16910941  0.54335633     0.01300
C640        C  0.84681107  0.15609569  0.54533828     0.07300
C641        C  0.84921294  0.14916377  0.52818124    -0.05800
H642        H  0.82771349  0.17715751  0.55384768     0.08000
H643        H  0.85842898  0.13865246  0.52428491     0.09200
Cu644      Cu  0.80889449  0.18636169  0.51554317     0.44200
Cu645      Cu  0.83576526  0.15489672  0.48882507     0.42000
Cu646      Cu  0.80580131  0.18799525  0.46818305     0.43900
N647        N  0.79041498  0.20243085  0.50229750    -0.34400
N648        N  0.78975909  0.20346045  0.48458998    -0.28700
C649        C  0.77740190  0.21572398  0.47974135    -0.04800
C650        C  0.76973919  0.22257696  0.49518775     0.07400
C651        C  0.77826891  0.21383476  0.50927156     0.01200
H652        H  0.77426852  0.21940331  0.46600692     0.08900
H653        H  0.77628679  0.21606935  0.52349299     0.08000
N654        N  0.82194561  0.17062604  0.45389044    -0.35900
N655        N  0.83236349  0.15805345  0.46101469    -0.28000
C656        C  0.84089039  0.14939620  0.44757441    -0.03300
C657        C  0.83576060  0.15718395  0.43137982     0.05300
C658        C  0.82372975  0.17051232  0.43594908     0.03400
H659        H  0.85066300  0.13878498  0.44948119     0.08500
H660        H  0.81683352  0.17960867  0.42688755     0.07400
O661        O  0.75006330  0.79160088  0.97078563    -0.72700
O662        O  0.77605831  0.76465788  0.00996304    -0.73700
O663        O  0.74949357  0.79244199  0.00901780    -0.62300
O664        O  0.77654828  0.76405033  0.97171597    -0.70700
O665        O  0.79800525  0.78477608  0.97180107    -0.70200
O666        O  0.77108896  0.81301750  0.00878214    -0.61500
O667        O  0.79747030  0.78543088  0.00982329    -0.74000
O668        O  0.77163720  0.81221895  0.97081070    -0.72800
Cu669      Cu  0.76227538  0.77745196  0.99040343     1.04600
Cu670      Cu  0.78527792  0.79954690  0.99032696     1.04300
C671        C  0.75676296  0.80620148  0.96457763     0.93500
C672        C  0.79101056  0.77073354  0.01600946     0.92700
C673        C  0.75593952  0.80739037  0.01464814     0.84800
C674        C  0.79159859  0.76999165  0.96581130     0.91100
N675        N  0.69830384  0.85631170  0.89026687    -0.27000
N676        N  0.71356333  0.86459612  0.88634202    -0.34900
C677        C  0.72672432  0.85811057  0.89693305     0.01300
C678        C  0.71948513  0.84499529  0.90803741     0.07300
C679        C  0.70139645  0.84423446  0.90341839    -0.05800
H680        H  0.74056964  0.86264324  0.89653397     0.08000
H681        H  0.69108701  0.83592636  0.90948334     0.09200
Cu682      Cu  0.71603623  0.88449547  0.86697527     0.44200
Cu683      Cu  0.67391839  0.86219011  0.87787596     0.42000
Cu684      Cu  0.67620747  0.89551863  0.84194894     0.43900
N685        N  0.71540317  0.90400729  0.84707432    -0.34400
N686        N  0.70077362  0.90806977  0.83781674    -0.28700
C687        C  0.70471415  0.92125459  0.82604724    -0.04800
C688        C  0.72274749  0.92580118  0.82800306     0.07400
C689        C  0.72906703  0.91445406  0.84145190     0.01200
H690        H  0.69505984  0.92720455  0.81690407     0.08900
H691        H  0.74263139  0.91351013  0.84664206     0.08000
N692        N  0.65291703  0.88205094  0.84930917    -0.35900
N693        N  0.65188446  0.87031607  0.86266287    -0.28000
C694        C  0.63483896  0.86425850  0.86384177    -0.03300
C695        C  0.62470397  0.87249880  0.85051299     0.05300
C696        C  0.63665035  0.88361346  0.84152919     0.03400
H697        H  0.63035652  0.85405741  0.87323580     0.08500
H698        H  0.63377894  0.89214682  0.83006313     0.07400
O699        O  0.78452093  0.98319147  0.74565211    -0.72700
O700        O  0.75903588  0.02329982  0.77123333    -0.73700
O701        O  0.78650197  0.02126094  0.74452300    -0.62300
O702        O  0.75711491  0.98508270  0.77221783    -0.70700
O703        O  0.77798462  0.98464734  0.79353911    -0.70200
O704        O  0.80712824  0.02085007  0.76607568    -0.61500
O705        O  0.77976552  0.02257356  0.79270918    -0.74000
O706        O  0.80523982  0.98291357  0.76712514    -0.72800
Cu707      Cu  0.77104710  0.00325390  0.75765830     1.04600
Cu708      Cu  0.79323038  0.00275946  0.78058771     1.04300
C709        C  0.79899588  0.97672002  0.75236878     0.93500
C710        C  0.76528432  0.02914846  0.78615657     0.92700
C711        C  0.80163167  0.02659811  0.75080387     0.84800
C712        C  0.76294308  0.97907454  0.78726555     0.91100
N713        N  0.84129292  0.70848234  0.89411523    -0.27000
N714        N  0.84999569  0.72335983  0.88971690    -0.34900
C715        C  0.84367828  0.73700028  0.89972773     0.01300
C716        C  0.83026253  0.73040957  0.91094101     0.07300
C717        C  0.82917899  0.71222934  0.90696105    -0.05800
H718        H  0.84863557  0.75067305  0.89899280     0.08000
H719        H  0.82077111  0.70223282  0.91339297     0.09200
Cu720      Cu  0.87068643  0.72396954  0.87093317     0.44200
Cu721      Cu  0.84726751  0.68353442  0.88345473     0.42000
Cu722      Cu  0.88643956  0.68058190  0.85458636     0.43900
N723        N  0.89171780  0.72087285  0.85279149    -0.34400
N724        N  0.89771129  0.70517269  0.84710476    -0.28700
C725        C  0.91165076  0.70798028  0.83589748    -0.04800
C726        C  0.91463759  0.72642030  0.83430134     0.07400
C727        C  0.90161505  0.73404813  0.84530075     0.01200
H728        H  0.91909534  0.69721073  0.82969794     0.08900
H729        H  0.89938341  0.74818171  0.84781334     0.08000
N730        N  0.87104995  0.65844433  0.86237401    -0.35900
N731        N  0.85652067  0.65973668  0.87251018    -0.28000
C732        C  0.84867130  0.64349023  0.87382677    -0.03300
C733        C  0.85875020  0.63125503  0.86413620     0.05300
C734        C  0.87288194  0.64123309  0.85708000     0.03400
H735        H  0.83625749  0.64089925  0.88096999     0.08500
H736        H  0.88314074  0.63658156  0.84791864     0.07400
O737        O  0.01717484  0.78529372  0.75569000    -0.72700
O738        O  0.97749494  0.75847729  0.78102263    -0.73700
O739        O  0.97879934  0.78559517  0.75398524    -0.62300
O740        O  0.01577089  0.75826373  0.78251805    -0.70700
O741        O  0.01511180  0.77927794  0.80355126    -0.70200
O742        O  0.97836839  0.80683044  0.77479797    -0.61500
O743        O  0.97677370  0.77981631  0.80175026    -0.74000
O744        O  0.01672890  0.80637097  0.77667000    -0.72800
Cu745      Cu  0.99732536  0.77120174  0.76756067     1.04600
Cu746      Cu  0.99672037  0.79380627  0.78991369     1.04300
C747        C  0.02341815  0.79993330  0.76224907     0.93500
C748        C  0.97078635  0.76498083  0.79542062     0.92700
C749        C  0.97259942  0.80047718  0.75988573     0.84800
C750        C  0.02136476  0.76445227  0.79755226     0.91100
N751        N  0.89835878  0.84782783  0.69876157    -0.27000
N752        N  0.89371233  0.85659976  0.71344203    -0.34900
C753        C  0.90422235  0.85118646  0.72716886     0.01300
C754        C  0.91624572  0.83840182  0.72084995     0.07300
C755        C  0.91197285  0.83659716  0.70274858    -0.05800
H756        H  0.90305016  0.85627155  0.74072104     0.08000
H757        H  0.91858530  0.82810571  0.69299759     0.09200
Cu758      Cu  0.87400965  0.87629717  0.71376532     0.44200
Cu759      Cu  0.88658719  0.85241637  0.67381969     0.42000
Cu760      Cu  0.85581762  0.89020282  0.67049656     0.43900
N761        N  0.85541461  0.89679003  0.71042161    -0.34400
N762        N  0.84897514  0.90205899  0.69469851    -0.28700
C763        C  0.83773672  0.91597788  0.69723839    -0.04800
C764        C  0.83700859  0.91967673  0.71550262     0.07400
C765        C  0.84844171  0.90718548  0.72337963     0.01200
H766        H  0.83105321  0.92308853  0.68644696     0.08900
H767        H  0.85158187  0.90571982  0.73751079     0.08000
N768        N  0.86353627  0.87470448  0.64874260    -0.35900
N769        N  0.87429385  0.86061502  0.65007645    -0.28000
C770        C  0.87563053  0.85277806  0.63386931    -0.03300
C771        C  0.86536846  0.86248881  0.62168223     0.05300
C772        C  0.85788313  0.87630164  0.63161462     0.03400
H773        H  0.88337961  0.84077777  0.63121011     0.08500
H774        H  0.84837999  0.88630670  0.62695707     0.07400
O775        O  0.21218816  0.80432622  0.97827187    -0.72700
O776        O  0.18573512  0.78053907  0.01906190    -0.73700
O777        O  0.21344620  0.80692292  0.01617983    -0.62300
O778        O  0.18450221  0.77803978  0.98110070    -0.70700
O779        O  0.20513425  0.75659176  0.98208402    -0.70200
O780        O  0.23417730  0.78557982  0.01730243    -0.61500
O781        O  0.20633958  0.75908566  0.02011048    -0.74000
O782        O  0.23281560  0.78288839  0.97931767    -0.72800
Cu783      Cu  0.19826022  0.79319447  0.99864863     1.04600
Cu784      Cu  0.22032507  0.77028347  0.99975489     1.04300
C785        C  0.22678470  0.79743466  0.97238431     0.93500
C786        C  0.19167469  0.76590973  0.02591229     0.92700
C787        C  0.22847294  0.80102621  0.02215470     0.84800
C788        C  0.19023725  0.76270452  0.97598573     0.91100
N789        N  0.14115407  0.70030187  0.90399402    -0.27000
N790        N  0.13219163  0.71516243  0.90014984    -0.34900
C791        C  0.13766900  0.72836526  0.91118085     0.01300
C792        C  0.15080922  0.72160672  0.92259210     0.07300
C793        C  0.15259949  0.70369309  0.91762479    -0.05800
H794        H  0.13259882  0.74198403  0.91065333     0.08000
H795        H  0.16134306  0.69368118  0.92353451     0.09200
Cu796      Cu  0.11305324  0.71730160  0.88004504     0.44200
Cu797      Cu  0.13754846  0.67611438  0.89044466     0.42000
Cu798      Cu  0.10326849  0.67739959  0.85527582     0.43900
N799        N  0.09461225  0.71657107  0.85920970    -0.34400
N800        N  0.09080301  0.70181601  0.85012580    -0.28700
C801        C  0.07836825  0.70568162  0.83752043    -0.04800
C802        C  0.07417093  0.72385897  0.83864643     0.07400
C803        C  0.08477625  0.73024108  0.85264544     0.01200
H804        H  0.07267910  0.69581612  0.82847313     0.08900
H805        H  0.08547336  0.74387032  0.85767259     0.08000
N806        N  0.11876907  0.65500607  0.86133535    -0.35900
N807        N  0.13116381  0.65431629  0.87412366    -0.28000
C808        C  0.13899697  0.63797725  0.87384719    -0.03300
C809        C  0.13128982  0.62804352  0.86007133     0.05300
C810        C  0.11848825  0.63926709  0.85252726     0.03400
H811        H  0.14993310  0.63388240  0.88257550     0.08500
H812        H  0.10967527  0.63630578  0.84130324     0.07400
N813        N  0.08703129  0.70913236  0.15105520    -0.27000
N814        N  0.09078628  0.72361474  0.14140017    -0.34900
C815        C  0.07962898  0.73699766  0.14618617     0.01300
C816        C  0.06819568  0.73072967  0.15953037     0.07300
C817        C  0.07339294  0.71299226  0.16230329    -0.05800
H818        H  0.08009854  0.75039691  0.14052400     0.08000
H819        H  0.06753692  0.70348446  0.17165226     0.09200
Cu820      Cu  0.11078466  0.72471388  0.12193774     0.44200
Cu821      Cu  0.10034347  0.68461189  0.14799640     0.42000
Cu822      Cu  0.13160466  0.68273965  0.11030920     0.43900
N823        N  0.13052880  0.72241789  0.10234275    -0.34400
N824        N  0.13803171  0.70697354  0.09789515    -0.28700
C825        C  0.15011021  0.70991377  0.08474641    -0.04800
C826        C  0.15031240  0.72817381  0.08068561     0.07400
C827        C  0.13762585  0.73560029  0.09215459     0.01200
H828        H  0.15787653  0.69939022  0.07847080     0.08900
H829        H  0.13385691  0.74960920  0.09315876     0.08000
N830        N  0.12499055  0.66073523  0.12626923    -0.35900
N831        N  0.11433637  0.66149052  0.14047599    -0.28000
C832        C  0.11403471  0.64519535  0.14847305    -0.03300
C833        C  0.12482257  0.63361366  0.13867447     0.05300
C834        C  0.13147166  0.64393389  0.12468370     0.03400
H835        H  0.10643597  0.64199621  0.16044001     0.08500
H836        H  0.14083324  0.63969174  0.11442260     0.07400
O837        O  0.96943224  0.78634566  0.18950253    -0.72700
O838        O  0.00652621  0.81226662  0.21900940    -0.73700
O839        O  0.00752902  0.78565697  0.19144695    -0.62300
O840        O  0.96854614  0.81288963  0.21696269    -0.70700
O841        O  0.96691659  0.79160912  0.23777119    -0.70200
O842        O  0.00632415  0.76445344  0.21237969    -0.61500
O843        O  0.00509766  0.79107121  0.23994323    -0.74000
O844        O  0.96814240  0.76494480  0.21022599    -0.72800
Cu845      Cu  0.98806489  0.80002064  0.20352590     1.04600
Cu846      Cu  0.98656920  0.77726157  0.22579153     1.04300
C847        C  0.96298984  0.77140782  0.19512474     0.93500
C848        C  0.01154394  0.80596933  0.23422930     0.92700
C849        C  0.01306618  0.77065364  0.19781252     0.84800
C850        C  0.96163041  0.80672922  0.23144751     0.91100
N851        N  0.89361832  0.71093510  0.14037981    -0.27000
N852        N  0.88883569  0.72596748  0.13219460    -0.34900
C853        C  0.89895825  0.73960530  0.13847047     0.01300
C854        C  0.91085773  0.73286687  0.15124374     0.07300
C855        C  0.90698551  0.71458411  0.15204130    -0.05800
H856        H  0.89734168  0.75342274  0.13423701     0.08000
H857        H  0.91336328  0.70457534  0.16047404     0.09200
Cu858      Cu  0.86881990  0.72713554  0.11280117     0.44200
Cu859      Cu  0.88130325  0.68628319  0.13564339     0.42000
Cu860      Cu  0.84816368  0.68478977  0.09968412     0.43900
N861        N  0.84961039  0.72472960  0.09271556    -0.34400
N862        N  0.84225820  0.70934449  0.08767217    -0.28700
C863        C  0.83066647  0.71252460  0.07409828    -0.04800
C864        C  0.83064846  0.73086003  0.07042006     0.07400
C865        C  0.84289425  0.73808321  0.08254717     0.01200
H866        H  0.82312880  0.70210827  0.06728931     0.08900
H867        H  0.84666488  0.75206287  0.08401535     0.08000
N868        N  0.85512970  0.66266023  0.11531402    -0.35900
N869        N  0.86684675  0.66335787  0.12871643    -0.28000
C870        C  0.86748566  0.64718124  0.13682763    -0.03300
C871        C  0.85577361  0.63564630  0.12799996     0.05300
C872        C  0.84816574  0.64595220  0.11442899     0.03400
H873        H  0.87586386  0.64406170  0.14835175     0.08500
H874        H  0.83784072  0.64182527  0.10499420     0.07400
N875        N  0.84008399  0.91423238  0.28730237    -0.27000
N876        N  0.84980415  0.91024610  0.27301820    -0.34900
C877        C  0.84411661  0.92021040  0.25900586     0.01300
C878        C  0.82999495  0.93095226  0.26465601     0.07300
C879        C  0.82787447  0.92680428  0.28273695    -0.05800
H880        H  0.84973969  0.91950031  0.24562081     0.08000
H881        H  0.81842562  0.93271213  0.29203839     0.09200
Cu882      Cu  0.86996683  0.89101904  0.27320575     0.44200
Cu883      Cu  0.84418426  0.90233346  0.31228849     0.42000
Cu884      Cu  0.87963290  0.86838825  0.31535609     0.43900
N885        N  0.88826948  0.87016077  0.27582850    -0.34400
N886        N  0.89179079  0.86171154  0.29108623    -0.28700
C887        C  0.90403660  0.84874987  0.28795570    -0.04800
C888        C  0.90845944  0.84906641  0.26981518     0.07400
C889        C  0.89816360  0.86287937  0.26264026     0.01200
H890        H  0.90954924  0.84005869  0.29825175     0.08900
H891        H  0.89773560  0.86728834  0.24878020     0.08000
N892        N  0.86432287  0.87698085  0.33710311    -0.35900
N893        N  0.85114161  0.88886581  0.33581519    -0.28000
C894        C  0.84313237  0.89046402  0.35192766    -0.03300
C895        C  0.85181233  0.87925437  0.36402884     0.05300
C896        C  0.86518081  0.87090998  0.35415748     0.03400
H897        H  0.83171207  0.89904777  0.35459114     0.08500
H898        H  0.87435353  0.86060966  0.35882288     0.07400
O899        O  0.77114839  0.02817820  0.17983459    -0.72700
O900        O  0.79811480  0.99082495  0.20821533    -0.73700
O901        O  0.77127133  0.99012175  0.18096811    -0.62300
O902        O  0.79804887  0.02906998  0.20708496    -0.70700
O903        O  0.77689203  0.02956152  0.22798326    -0.70200
O904        O  0.74992406  0.99065546  0.20168243    -0.61500
O905        O  0.77678961  0.99114754  0.22895864    -0.74000
O906        O  0.74988349  0.02880899  0.20062141    -0.72800
Cu907      Cu  0.78538626  0.00954178  0.19333576     1.04600
Cu908      Cu  0.76265387  0.01007098  0.21556468     1.04300
C909        C  0.75615682  0.03429900  0.18557918     0.93500
C910        C  0.79167926  0.98493780  0.22303028     0.92700
C911        C  0.75628545  0.98428227  0.18708184     0.84800
C912        C  0.79174422  0.03555837  0.22165393     0.91100
N913        N  0.69494942  0.91307160  0.13588302    -0.27000
N914        N  0.70997777  0.90805555  0.12785821    -0.34900
C915        C  0.72374809  0.91792391  0.13421735     0.01300
C916        C  0.71716187  0.92992561  0.14681174     0.07300
C917        C  0.69882194  0.92633448  0.14756234    -0.05800
H918        H  0.73754733  0.91624224  0.12997445     0.08000
H919        H  0.68890271  0.93306475  0.15576885     0.09200
Cu920      Cu  0.71156438  0.88858282  0.10807497     0.44200
Cu921      Cu  0.66981221  0.90177327  0.13056199     0.42000
Cu922      Cu  0.67042564  0.86699621  0.09621988     0.43900
N923        N  0.70980904  0.86949082  0.08792692    -0.34400
N924        N  0.69456161  0.86146764  0.08353163    -0.28700
C925        C  0.69770667  0.84961409  0.07027993    -0.04800
C926        C  0.71591341  0.85013196  0.06612459     0.07400
C927        C  0.72309511  0.86301747  0.07757394     0.01200
H928        H  0.68739496  0.84139163  0.06411163     0.08900
H929        H  0.73703057  0.86714425  0.07861529     0.08000
N930        N  0.64777457  0.87407826  0.11072615    -0.35900
N931        N  0.64724328  0.88689098  0.12301581    -0.28000
C932        C  0.63058309  0.88735543  0.13015298    -0.03300
C933        C  0.62027788  0.87402837  0.12209870     0.05300
C934        C  0.63162936  0.86597701  0.10982236     0.03400
H935        H  0.62655388  0.89609746  0.14101807     0.08500
H936        H  0.62853304  0.85478882  0.10108426     0.07400
N937        N  0.69830826  0.15927856  0.08125742    -0.27000
N938        N  0.71310677  0.15046557  0.08564708    -0.34900
C939        C  0.72675779  0.15642143  0.07538691     0.01300
C940        C  0.72034977  0.16968136  0.06384417     0.07300
C941        C  0.70215753  0.17105489  0.06801337    -0.05800
H942        H  0.74037247  0.15137560  0.07631931     0.08000
H943        H  0.69224206  0.17961058  0.06168368     0.09200
Cu944      Cu  0.71393983  0.13012493  0.10483408     0.44200
Cu945      Cu  0.67356778  0.15449129  0.09347701     0.42000
Cu946      Cu  0.67180280  0.11701200  0.12533491     0.43900
N947        N  0.71152428  0.10923141  0.12327612    -0.34400
N948        N  0.69613800  0.10424268  0.13065938    -0.28700
C949        C  0.69928093  0.09052811  0.14210036    -0.04800
C950        C  0.71755584  0.08660806  0.14189670     0.07400
C951        C  0.72483483  0.09884992  0.12979704     0.01200
H952        H  0.68898465  0.08396431  0.15003705     0.08900
H953        H  0.73885445  0.10054893  0.12629563     0.08000
N954        N  0.64991547  0.13329038  0.11904396    -0.35900
N955        N  0.65065083  0.14706252  0.10777146    -0.28000
C956        C  0.63450859  0.15523805  0.10742504    -0.03300
C957        C  0.62295517  0.14611944  0.11890111     0.05300
C958        C  0.63325262  0.13229074  0.12605221     0.03400
H959        H  0.63143144  0.16698594  0.09938414     0.08500
H960        H  0.62917647  0.12255047  0.13607329     0.07400
O961        O  0.80504204  0.22803469  0.00430986    -0.72700
O962        O  0.77853796  0.20051353  0.96666108    -0.73700
O963        O  0.80595690  0.22709075  0.96645628    -0.62300
O964        O  0.77739369  0.20156607  0.00454288    -0.70700
O965        O  0.75669350  0.22291511  0.00338969    -0.70200
O966        O  0.78546842  0.24863878  0.96515397    -0.61500
O967        O  0.75776274  0.22177716  0.96511774    -0.74000
O968        O  0.78464513  0.24968515  0.00340529    -0.72800
Cu969      Cu  0.79240321  0.21359934  0.98553901     1.04600
Cu970      Cu  0.77038560  0.23652406  0.98422785     1.04300
C971        C  0.79935484  0.24326921  0.00972061     0.93500
C972        C  0.76392430  0.20657313  0.95995975     0.92700
C973        C  0.80040234  0.24197528  0.95985906     0.84800
C974        C  0.76242476  0.20804186  0.00992047     0.91100
N975        N  0.70693757  0.10324903  0.83536505    -0.27000
N976        N  0.72106552  0.10540871  0.84597435    -0.34900
C977        C  0.73416541  0.09415417  0.84072491     0.01300
C978        C  0.72797138  0.08438784  0.82609039     0.07300
C979        C  0.71067102  0.09062382  0.82303272    -0.05800
H980        H  0.74727866  0.09334528  0.84704085     0.08000
H981        H  0.70127656  0.08600526  0.81289571     0.09200
Cu982      Cu  0.72178198  0.12352203  0.86710954     0.44200
Cu983      Cu  0.68284484  0.11659588  0.83897896     0.42000
Cu984      Cu  0.67978292  0.14541057  0.87814357     0.43900
N985        N  0.71934766  0.14331474  0.88653349    -0.34400
N986        N  0.70404602  0.15140212  0.89049269    -0.28700
C987        C  0.70715658  0.16394866  0.90312771    -0.04800
C988        C  0.72533628  0.16376724  0.90735611     0.07400
C989        C  0.73259600  0.15043530  0.89660131     0.01200
H990        H  0.69684569  0.17237879  0.90890830     0.08900
H991        H  0.74655268  0.14638811  0.89588527     0.08000
N992        N  0.65802118  0.13860486  0.86211526    -0.35900
N993        N  0.65931632  0.12864601  0.84748401    -0.28000
C994        C  0.64303909  0.12740017  0.83968346    -0.03300
C995        C  0.63084555  0.13689260  0.84999075     0.05300
C996        C  0.64083347  0.14385519  0.86410048     0.03400
H997        H  0.64029862  0.12004237  0.82745265     0.08500
H998        H  0.63613732  0.15258023  0.87470678     0.07400
N999        N  0.91090761  0.29874489  0.84061058    -0.27000
N1000       N  0.90527289  0.28376110  0.84836957    -0.34900
C1001       C  0.91478614  0.26985123  0.84187229     0.01300
C1002       C  0.92700235  0.27634021  0.82932010     0.07300
C1003       C  0.92412726  0.29477929  0.82895151    -0.05800
H1004       H  0.91284798  0.25600782  0.84595032     0.08000
H1005       H  0.93133680  0.30472318  0.82114472     0.09200
Cu1006     Cu  0.88505520  0.28308160  0.86763731     0.44200
Cu1007     Cu  0.90051846  0.32392355  0.84652260     0.42000
Cu1008     Cu  0.86686994  0.32614387  0.88177372     0.43900
N1009       N  0.86499576  0.28591292  0.88686199    -0.34400
N1010       N  0.85834866  0.30154163  0.89203606    -0.28700
C1011       C  0.84572396  0.29862213  0.90467558    -0.04800
C1012       C  0.84434731  0.28023340  0.90766851     0.07400
C1013       C  0.85683892  0.27266571  0.89611766     0.01200
H1014       H  0.83846848  0.30919631  0.91146200     0.08900
H1015       H  0.85980471  0.25852219  0.89449041     0.08000
N1016       N  0.87631855  0.34849146  0.86784001    -0.35900
N1017       N  0.88817545  0.34754906  0.85464741    -0.28000
C1018       C  0.88986689  0.36387756  0.84701783    -0.03300
C1019       C  0.87868513  0.37574782  0.85592895     0.05300
C1020       C  0.87033391  0.36551804  0.86908443     0.03400
H1021       H  0.89813684  0.36673820  0.83539336     0.08500
H1022       H  0.85975007  0.36982969  0.87806431     0.07400
N1023       N  0.29071567  0.84526238  0.90126904    -0.27000
N1024       N  0.27624589  0.85419513  0.89611726    -0.34900
C1025       C  0.26196484  0.84837274  0.90552834     0.01300
C1026       C  0.26764143  0.83513373  0.91740703     0.07300
C1027       C  0.28599726  0.83347197  0.91420112    -0.05800
H1028       H  0.24847424  0.85350184  0.90370769     0.08000
H1029       H  0.29535346  0.82465697  0.92105137     0.09200
Cu1030     Cu  0.27668155  0.87464098  0.87732336     0.44200
Cu1031     Cu  0.31609214  0.85020782  0.89048632     0.42000
Cu1032     Cu  0.31974141  0.88856967  0.85958200     0.43900
N1033       N  0.27991276  0.89588099  0.85971881    -0.34400
N1034       N  0.29558996  0.90126119  0.85329881    -0.28700
C1035       C  0.29280018  0.91514807  0.84198264    -0.04800
C1036       C  0.27445440  0.91870321  0.84131285     0.07400
C1037       C  0.26676910  0.90612132  0.85273657     0.01200
H1038       H  0.30335361  0.92201912  0.83469186     0.08900
H1039       H  0.25262782  0.90403626  0.85541188     0.08000
N1040       N  0.34106414  0.87173998  0.86637932    -0.35900
N1041       N  0.33962927  0.85770366  0.87726162    -0.28000
C1042       C  0.35549850  0.84902895  0.87779588    -0.03300
C1043       C  0.36756262  0.85799668  0.86674293     0.05300
C1044       C  0.35793009  0.87239929  0.85982526     0.03400
H1045       H  0.35798003  0.83701335  0.88564077     0.08500
H1046       H  0.36262230  0.88225617  0.85018205     0.07400
O1047       O  0.02275864  0.19100620  0.77025648    -0.72700
O1048       O  0.98455840  0.21904732  0.79574810    -0.73700
O1049       O  0.98460276  0.19189672  0.76875871    -0.62300
O1050       O  0.02256917  0.21818883  0.79704382    -0.70700
O1051       O  0.02373159  0.23912404  0.77584547    -0.70200
O1052       O  0.98554878  0.21290719  0.74762644    -0.61500
O1053       O  0.98561371  0.24014537  0.77471376    -0.74000
O1054       O  0.02389003  0.21181613  0.74893626    -0.72800
Cu1055     Cu  0.00356587  0.20430430  0.78364511     1.04600
Cu1056     Cu  0.00473708  0.22671288  0.76101467     1.04300
C1057       C  0.02944064  0.19692077  0.75557838     0.93500
C1058       C  0.97921783  0.23416401  0.78953061     0.92700
C1059       C  0.97907055  0.19814820  0.75369827     0.84800
C1060       C  0.02903078  0.23296867  0.79103060     0.91100
N1061       N  0.85926404  0.09235051  0.68856805    -0.27000
N1062       N  0.86655018  0.09772519  0.70388049    -0.34900
C1063       C  0.85950246  0.08815865  0.71749130     0.01300
C1064       C  0.84714896  0.07598681  0.71056837     0.07300
C1065       C  0.84732829  0.07913719  0.69212456    -0.05800
H1066       H  0.86281839  0.09045379  0.73146067     0.08000
H1067       H  0.83932102  0.07239931  0.68199801     0.09200
Cu1068     Cu  0.88527946  0.11824889  0.70629453     0.44200
Cu1069     Cu  0.86539219  0.10397455  0.66371027     0.42000
Cu1070     Cu  0.89494224  0.14330854  0.66665050     0.43900
N1071       N  0.90337999  0.13946073  0.70590969    -0.34400
N1072       N  0.90682615  0.14895176  0.69129577    -0.28700
C1073       C  0.91943343  0.16140210  0.69516492    -0.04800
C1074       C  0.92422242  0.15964760  0.71315230     0.07400
C1075       C  0.91370309  0.14554403  0.71946989     0.01200
H1076       H  0.92514563  0.17052416  0.68536706     0.08900
H1077       H  0.91362012  0.13996236  0.73291831     0.08000
N1078       N  0.88289701  0.13442021  0.64305610    -0.35900
N1079       N  0.87263547  0.11990865  0.64168866    -0.28000
C1080       C  0.86665769  0.11859101  0.62460274    -0.03300
C1081       C  0.87333463  0.13305353  0.61483082     0.05300
C1082       C  0.88354126  0.14276372  0.62702350     0.03400
H1083       H  0.85718344  0.10852373  0.61994452     0.08500
H1084       H  0.89047177  0.15535435  0.62458254     0.07400
N1085       N  0.14925757  0.08822300  0.69528629    -0.27000
N1086       N  0.14206534  0.09407921  0.71042551    -0.34900
C1087       C  0.14885608  0.08467065  0.72428431     0.01300
C1088       C  0.16090772  0.07212696  0.71770834     0.07300
C1089       C  0.16087270  0.07486576  0.69922194    -0.05800
H1090       H  0.14546034  0.08718370  0.73817122     0.08000
H1091       H  0.16864542  0.06763237  0.68931606     0.09200
Cu1092     Cu  0.12332703  0.11457086  0.71244672     0.44200
Cu1093     Cu  0.14324554  0.09900468  0.67003448     0.42000
Cu1094     Cu  0.10934190  0.13431255  0.67139803     0.43900
N1095       N  0.10405931  0.13464057  0.71127719    -0.34400
N1096       N  0.09871821  0.14178667  0.69592401    -0.28700
C1097       C  0.08594873  0.15412058  0.69919280    -0.04800
C1098       C  0.08309090  0.15490309  0.71761688     0.07400
C1099       C  0.09484350  0.14224615  0.72480599     0.01200
H1100       H  0.07903965  0.16156420  0.68878499     0.08900
H1101       H  0.09661601  0.13877131  0.73882693     0.08000
N1102       N  0.12298422  0.12680548  0.64841991    -0.35900
N1103       N  0.13525469  0.11397072  0.64762024    -0.28000
C1104       C  0.14212640  0.11363266  0.63085768    -0.03300
C1105       C  0.13391893  0.12705831  0.62076945     0.05300
C1106       C  0.12179716  0.13500080  0.63236534     0.03400
H1107       H  0.15294365  0.10491528  0.62660739     0.08500
H1108       H  0.11299249  0.14622592  0.62953231     0.07400
O1109       O  0.24406320  0.97679662  0.78213616    -0.72700
O1110       O  0.21802511  0.01479142  0.75346738    -0.73700
O1111       O  0.24444468  0.01492052  0.78164853    -0.62300
O1112       O  0.21775661  0.97653976  0.75411276    -0.70700
O1113       O  0.19607910  0.97715793  0.77447800    -0.70200
O1114       O  0.22266354  0.01504271  0.80191029    -0.61500
O1115       O  0.19648542  0.01510341  0.77398530    -0.74000
O1116       O  0.22218337  0.97719243  0.80229759    -0.72800
Cu1117     Cu  0.23184047  0.99576993  0.76710199     1.04600
Cu1118     Cu  0.20861930  0.99615900  0.78883386     1.04300
C1119       C  0.23728392  0.97109163  0.79687389     0.93500
C1120       C  0.20296122  0.02081943  0.75912586     0.92700
C1121       C  0.23788946  0.02080384  0.79639098     0.84800
C1122       C  0.20261102  0.97080265  0.75996259     0.91100
N1123       N  0.15180591  0.89792692  0.70014848    -0.27000
N1124       N  0.14388798  0.89373106  0.71550368    -0.34900
C1125       C  0.15062167  0.90415993  0.72861216     0.01300
C1126       C  0.16349700  0.91546717  0.72127715     0.07300
C1127       C  0.16390585  0.91110896  0.70315886    -0.05800
H1128       H  0.14638201  0.90353326  0.74250657     0.08000
H1129       H  0.17196156  0.91739317  0.69278980     0.09200
Cu1130     Cu  0.12399689  0.87437806  0.71848103     0.44200
Cu1131     Cu  0.14530986  0.88594554  0.67575832     0.42000
Cu1132     Cu  0.11238523  0.84981301  0.67898187     0.43900
N1133       N  0.10429028  0.85461657  0.71818754    -0.34400
N1134       N  0.10015006  0.84549283  0.70354361    -0.28700
C1135       C  0.08668785  0.83400176  0.70727225    -0.04800
C1136       C  0.08208949  0.83588133  0.72522772     0.07400
C1137       C  0.09353814  0.84917527  0.73168857     0.01200
H1138       H  0.08036383  0.82540075  0.69738905     0.08900
H1139       H  0.09400163  0.85457614  0.74517853     0.08000
N1140       N  0.12496588  0.85734130  0.65537489    -0.35900
N1141       N  0.13646875  0.87087330  0.65395510    -0.28000
C1142       C  0.14187907  0.87218497  0.63674632    -0.03300
C1143       C  0.13348563  0.85872489  0.62697394     0.05300
C1144       C  0.12295328  0.84953350  0.63922966     0.03400
H1145       H  0.15178679  0.88171164  0.63189151     0.08500
H1146       H  0.11455494  0.83789661  0.63665074     0.07400
N1147       N  0.28748577  0.90630577  0.14383811    -0.27000
N1148       N  0.27275470  0.90240895  0.13467026    -0.34900
C1149       C  0.25899016  0.91210166  0.14119628     0.01300
C1150       C  0.26534643  0.92256654  0.15528645     0.07300
C1151       C  0.28353390  0.91854311  0.15649260    -0.05800
H1152       H  0.24535497  0.91144864  0.13611680     0.08000
H1153       H  0.29333802  0.92433376  0.16556116     0.09200
Cu1154     Cu  0.27242066  0.88403570  0.11379425     0.44200
Cu1155     Cu  0.31222748  0.89492690  0.13830683     0.42000
Cu1156     Cu  0.31506500  0.86425964  0.10017603     0.43900
N1157       N  0.27507791  0.86514395  0.09356841    -0.34400
N1158       N  0.29047990  0.85797833  0.08839651    -0.28700
C1159       C  0.28716721  0.84606028  0.07518216    -0.04800
C1160       C  0.26878065  0.84579027  0.07180834     0.07400
C1161       C  0.26161176  0.85800983  0.08385251     0.01200
H1162       H  0.29742057  0.83818993  0.06854392     0.08900
H1163       H  0.24757383  0.86123368  0.08586795     0.08000
N1164       N  0.33683943  0.87146334  0.11618920    -0.35900
N1165       N  0.33560505  0.88226944  0.13022432    -0.28000
C1166       C  0.35165041  0.88308862  0.13854017    -0.03300
C1167       C  0.36366237  0.87237647  0.12927542     0.05300
C1168       C  0.35379463  0.86522077  0.11515150     0.03400
H1169       H  0.35426130  0.89070459  0.15065222     0.08500
H1170       H  0.35831125  0.85548780  0.10536834     0.07400
O1171       O  0.23157289  0.01867567  0.21223490    -0.72700
O1172       O  0.20429917  0.98046230  0.23890548    -0.73700
O1173       O  0.23139036  0.98042720  0.21182137    -0.62300
O1174       O  0.20432298  0.01868061  0.23901786    -0.70700
O1175       O  0.18354904  0.01874246  0.21759400    -0.70200
O1176       O  0.21030551  0.98089091  0.19071775    -0.61500
O1177       O  0.18331295  0.98064619  0.21770050    -0.74000
O1178       O  0.21066612  0.01897304  0.19095174    -0.72800
Cu1179     Cu  0.21864203  0.99953226  0.22623773     1.04600
Cu1180     Cu  0.19624324  0.99979384  0.20352693     1.04300
C1181       C  0.22547757  0.02495127  0.19741137     0.93500
C1182       C  0.18938565  0.97457191  0.23262795     0.92700
C1183       C  0.22514344  0.97472508  0.19681731     0.84800
C1184       C  0.18959111  0.02479060  0.23249575     0.91100
N1185       N  0.13619534  0.90631711  0.29611181    -0.27000
N1186       N  0.12740033  0.90212662  0.28126675    -0.34900
C1187       C  0.13425084  0.91159722  0.26748387     0.01300
C1188       C  0.14811320  0.92241286  0.27389316     0.07300
C1189       C  0.14887070  0.91865972  0.29220886    -0.05800
H1190       H  0.12939736  0.91060263  0.25380617     0.08000
H1191       H  0.15758748  0.92467075  0.30217727     0.09200
Cu1192     Cu  0.10620564  0.88406825  0.28066448     0.44200
Cu1193     Cu  0.13009779  0.89502367  0.32085973     0.42000
Cu1194     Cu  0.09202900  0.86365092  0.32262664     0.43900
N1195       N  0.08547194  0.86558768  0.28274480    -0.34400
N1196       N  0.08028588  0.85788144  0.29790852    -0.28700
C1197       C  0.06679614  0.84628624  0.29428597    -0.04800
C1198       C  0.06321085  0.84693569  0.27598073     0.07400
C1199       C  0.07540160  0.85926475  0.26914699     0.01200
H1200       H  0.05999482  0.83814454  0.30426421     0.08900
H1201       H  0.07715894  0.86314229  0.25523261     0.08000
N1202       N  0.10754335  0.87088594  0.34475563    -0.35900
N1203       N  0.12158124  0.88184180  0.34391513    -0.28000
C1204       C  0.12984179  0.88211497  0.35999919    -0.03300
C1205       C  0.12050196  0.87094762  0.37161122     0.05300
C1206       C  0.10640792  0.86408803  0.36150294     0.03400
H1207       H  0.14215029  0.88941741  0.36283253     0.08500
H1208       H  0.09677280  0.85394922  0.36564121     0.07400
N1209       N  0.28819248  0.09798569  0.15017336    -0.27000
N1210       N  0.27346627  0.10250683  0.14128722    -0.34900
C1211       C  0.25970694  0.09225789  0.14708129     0.01300
C1212       C  0.26603300  0.08065547  0.16032126     0.07300
C1213       C  0.28423281  0.08472382  0.16183757    -0.05800
H1214       H  0.24612468  0.09316000  0.14188785     0.08000
H1215       H  0.29412493  0.07820604  0.17028207     0.09200
Cu1216     Cu  0.27314107  0.12172591  0.12102402     0.44200
Cu1217     Cu  0.31315982  0.10948267  0.14538063     0.42000
Cu1218     Cu  0.31610809  0.14191329  0.10892408     0.43900
N1219       N  0.27644102  0.14021850  0.10035009    -0.34400
N1220       N  0.29202084  0.14756151  0.09587224    -0.28700
C1221       C  0.28944575  0.15865595  0.08177761    -0.04800
C1222       C  0.27136875  0.15821402  0.07703350     0.07400
C1223       C  0.26357033  0.14641883  0.08923971     0.01200
H1224       H  0.30005040  0.16625928  0.07531053     0.08900
H1225       H  0.24952766  0.14270471  0.09025420     0.08000
N1226       N  0.33801783  0.13375039  0.12428298    -0.35900
N1227       N  0.33682830  0.12209827  0.13768306    -0.28000
C1228       C  0.35311009  0.12025140  0.14537566    -0.03300
C1229       C  0.36523681  0.13119274  0.13636268     0.05300
C1230       C  0.35514337  0.13955701  0.12305122     0.03400
H1231       H  0.35584225  0.11168041  0.15684352     0.08500
H1232       H  0.35968732  0.14968322  0.11361028     0.07400
N1233       N  0.29669129  0.14395509  0.90097881    -0.27000
N1234       N  0.28169227  0.13545717  0.89652669    -0.34900
C1235       C  0.26809528  0.14185104  0.90655039     0.01300
C1236       C  0.27485225  0.15504498  0.91788718     0.07300
C1237       C  0.29303626  0.15605569  0.91387907    -0.05800
H1238       H  0.25429165  0.13734602  0.90545830     0.08000
H1239       H  0.30295786  0.16474664  0.92006626     0.09200
Cu1240     Cu  0.28056329  0.11538350  0.87716177     0.44200
Cu1241     Cu  0.32143031  0.13844419  0.88942223     0.42000
Cu1242     Cu  0.32326537  0.10153741  0.85774264     0.43900
N1243       N  0.28319393  0.09502271  0.85826136    -0.34400
N1244       N  0.29871732  0.08989164  0.85132723    -0.28700
C1245       C  0.29572605  0.07649963  0.83955637    -0.04800
C1246       C  0.27739616  0.07298876  0.83900309     0.07400
C1247       C  0.26992356  0.08498691  0.85111364     0.01200
H1248       H  0.30622898  0.06972542  0.83217319     0.08900
H1249       H  0.25582258  0.08650299  0.85436475     0.08000
N1250       N  0.34536282  0.11716508  0.86457224    -0.35900
N1251       N  0.34451299  0.13088292  0.87581123    -0.28000
C1252       C  0.36050867  0.13934417  0.87606741    -0.03300
C1253       C  0.37205863  0.13046339  0.86454615     0.05300
C1254       C  0.36200479  0.11643205  0.85750149     0.03400
H1255       H  0.36336665  0.15135208  0.88374411     0.08500
H1256       H  0.36612589  0.10701868  0.84724608     0.07400
O1257       O  0.24202220  0.21239305  0.97591774    -0.72700
O1258       O  0.21491250  0.24044709  0.01329898    -0.73700
O1259       O  0.24189495  0.21309244  0.01417414    -0.62300
O1260       O  0.21495564  0.23951895  0.97516471    -0.70700
O1261       O  0.19387649  0.21840771  0.97540077    -0.70200
O1262       O  0.22044475  0.19235797  0.01437468    -0.61500
O1263       O  0.19361313  0.21955591  0.01335164    -0.74000
O1264       O  0.22085678  0.19136619  0.97637769    -0.72800
Cu1265     Cu  0.22920465  0.22709509  0.99463236     1.04600
Cu1266     Cu  0.20649330  0.20470318  0.99490235     1.04300
C1267       C  0.23578644  0.19738205  0.97027799     0.93500
C1268       C  0.19979053  0.23457875  0.01904275     0.92700
C1269       C  0.23539097  0.19841085  0.02041065     0.84800
C1270       C  0.20007139  0.23319103  0.96917818     0.91100
N1271       N  0.15054471  0.29416511  0.89616582    -0.27000
N1272       N  0.14181896  0.27924647  0.89203688    -0.34900
C1273       C  0.14764132  0.26585312  0.90273958     0.01300
C1274       C  0.16075279  0.27263620  0.91422836     0.07300
C1275       C  0.16211192  0.29071513  0.90965775    -0.05800
H1276       H  0.14272885  0.25216331  0.90206406     0.08000
H1277       H  0.17057734  0.30082419  0.91579974     0.09200
Cu1278     Cu  0.12214596  0.27817696  0.87231579     0.44200
Cu1279     Cu  0.14626366  0.31850114  0.88318877     0.42000
Cu1280     Cu  0.10999849  0.32055766  0.85041874     0.43900
N1281       N  0.10225850  0.28059973  0.85292272    -0.34400
N1282       N  0.09759366  0.29585798  0.84504287    -0.28700
C1283       C  0.08432379  0.29243765  0.83313481    -0.04800
C1284       C  0.08048738  0.27409949  0.83346161     0.07400
C1285       C  0.09216560  0.26714803  0.84627243     0.01200
H1286       H  0.07794750  0.30267377  0.82499712     0.08900
H1287       H  0.09354142  0.25323777  0.85031817     0.08000
N1288       N  0.12620381  0.34256919  0.85721254    -0.35900
N1289       N  0.13975622  0.34149265  0.86874247    -0.28000
C1290       C  0.14834548  0.35742383  0.86936017    -0.03300
C1291       C  0.13975227  0.36923478  0.85778793     0.05300
C1292       C  0.12569179  0.35938540  0.85038974     0.03400
H1293       H  0.15999845  0.36019405  0.87768242     0.08500
H1294       H  0.11616724  0.36394035  0.84032907     0.07400
N1295       N  0.08998122  0.30142563  0.13310695    -0.27000
N1296       N  0.09561962  0.28606760  0.12627433    -0.34900
C1297       C  0.08659594  0.27241617  0.13396597     0.01300
C1298       C  0.07450511  0.27943029  0.14626811     0.07300
C1299       C  0.07712768  0.29792891  0.14534786    -0.05800
H1300       H  0.08911499  0.25842499  0.13100131     0.08000
H1301       H  0.07020718  0.30816434  0.15297870     0.09200
Cu1302     Cu  0.11555461  0.28410301  0.10706163     0.44200
Cu1303     Cu  0.10082526  0.32620684  0.12591385     0.42000
Cu1304     Cu  0.13812614  0.32463411  0.09368030     0.43900
N1305       N  0.13587429  0.28469210  0.08815000    -0.34400
N1306       N  0.14434938  0.29950901  0.08315202    -0.28700
C1307       C  0.15690921  0.29520911  0.07086452    -0.04800
C1308       C  0.15618202  0.27677814  0.06790840     0.07400
C1309       C  0.14270500  0.27061243  0.07921085     0.01200
H1310       H  0.16577062  0.30481657  0.06444129     0.08900
H1311       H  0.13834020  0.25686206  0.08114672     0.08000
N1312       N  0.12962391  0.34777695  0.10682650    -0.35900
N1313       N  0.11592679  0.34847144  0.11814185    -0.28000
C1314       C  0.11466212  0.36527689  0.12472391    -0.03300
C1315       C  0.12827632  0.37564685  0.11730329     0.05300
C1316       C  0.13750113  0.36406369  0.10606717     0.03400
H1317       H  0.10517248  0.36934156  0.13494324     0.08500
H1318       H  0.14938025  0.36711566  0.09824412     0.07400
N1319       N  0.08719895  0.15113282  0.28958232    -0.27000
N1320       N  0.09081890  0.14221775  0.27468695    -0.34900
C1321       C  0.08056199  0.14874567  0.26126679     0.01300
C1322       C  0.06998983  0.16250618  0.26801816     0.07300
C1323       C  0.07466114  0.16368788  0.28602004    -0.05800
H1324       H  0.08105691  0.14400615  0.24752781     0.08000
H1325       H  0.06916914  0.17282838  0.29589357     0.09200
Cu1326     Cu  0.10969707  0.12171619  0.27341007     0.44200
Cu1327     Cu  0.09918982  0.14527607  0.31404053     0.42000
Cu1328     Cu  0.12850999  0.10617618  0.31581842     0.43900
N1329       N  0.12852511  0.10122863  0.27562518    -0.34400
N1330       N  0.13506037  0.09527347  0.29106028    -0.28700
C1331       C  0.14672053  0.08187113  0.28778116    -0.04800
C1332       C  0.14761537  0.07917127  0.26934297     0.07400
C1333       C  0.13590769  0.09183758  0.26211642     0.01200
H1334       H  0.15390154  0.07458569  0.29813905     0.08900
H1335       H  0.13304282  0.09438314  0.24809906     0.08000
N1336       N  0.12239220  0.12191666  0.33794036    -0.35900
N1337       N  0.11211356  0.13639102  0.33708133    -0.28000
C1338       C  0.11220161  0.14458728  0.35314796    -0.03300
C1339       C  0.12308281  0.13484367  0.36472916     0.05300
C1340       C  0.12920935  0.12046575  0.35466191     0.03400
H1341       H  0.10510570  0.15693057  0.35601853     0.08500
H1342       H  0.13870264  0.11027038  0.35887496     0.07400
N1343       N  0.85448145  0.30471527  0.07814023    -0.27000
N1344       N  0.86170410  0.28936124  0.08348218    -0.34900
C1345       C  0.85442609  0.27587686  0.07383218     0.01300
C1346       C  0.84191126  0.28305030  0.06191227     0.07300
C1347       C  0.84240190  0.30141377  0.06504368    -0.05800
H1348       H  0.85784033  0.26183839  0.07556444     0.08000
H1349       H  0.83474810  0.31173619  0.05820809     0.09200
Cu1350     Cu  0.88094312  0.28743190  0.10387695     0.44200
Cu1351     Cu  0.86072797  0.32949936  0.08923777     0.42000
Cu1352     Cu  0.89239274  0.32927254  0.12618926     0.43900
N1353       N  0.89998293  0.28941982  0.12444978    -0.34400
N1354       N  0.90426894  0.30470450  0.13244509    -0.28700
C1355       C  0.91695753  0.30148287  0.14500344    -0.04800
C1356       C  0.92087830  0.28321633  0.14506646     0.07400
C1357       C  0.90982340  0.27607198  0.13175070     0.01200
H1358       H  0.92299782  0.31183148  0.15323597     0.08900
H1359       H  0.90882622  0.26213647  0.12772983     0.08000
N1360       N  0.87775324  0.35183253  0.11837604    -0.35900
N1361       N  0.86652806  0.35203616  0.10455383    -0.28000
C1362       C  0.85852830  0.36824256  0.10361099    -0.03300
C1363       C  0.86490258  0.37875057  0.11761583     0.05300
C1364       C  0.87704664  0.36785717  0.12670270     0.03400
H1365       H  0.84804807  0.37170877  0.09408074     0.08500
H1366       H  0.88448245  0.37116570  0.13878827     0.07400
O1367       O  0.97608159  0.20241622  0.21161096    -0.72700
O1368       O  0.01608852  0.22683104  0.18505413    -0.73700
O1369       O  0.01393186  0.20064650  0.21281735    -0.62300
O1370       O  0.97812092  0.22841118  0.18373182    -0.70700
O1371       O  0.97812247  0.25016791  0.20399408    -0.70200
O1372       O  0.01472511  0.22223818  0.23327400    -0.61500
O1373       O  0.01640278  0.24868949  0.20523014    -0.74000
O1374       O  0.97642679  0.22390929  0.23217195    -0.72800
Cu1375     Cu  0.99606257  0.21386169  0.19763529     1.04600
Cu1376     Cu  0.99645296  0.23703296  0.21940464     1.04300
C1377       C  0.96995317  0.20914966  0.22614913     0.93500
C1378       C  0.02243468  0.24177575  0.19073083     0.92700
C1379       C  0.01990088  0.20681790  0.22769822     0.84800
C1380       C  0.97241310  0.24366910  0.18909156     0.91100
N1381       N  0.84213089  0.10834412  0.28179882    -0.27000
N1382       N  0.84953937  0.11379000  0.26659797    -0.34900
C1383       C  0.84287128  0.10387948  0.25298702     0.01300
C1384       C  0.83054649  0.09164963  0.25993368     0.07300
C1385       C  0.83052121  0.09490272  0.27828525    -0.05800
H1386       H  0.84674542  0.10548026  0.23906233     0.08000
H1387       H  0.82303753  0.08773962  0.28849750     0.09200
Cu1388     Cu  0.86876652  0.13409311  0.26539519     0.44200
Cu1389     Cu  0.84832989  0.11912555  0.30675422     0.42000
Cu1390     Cu  0.88109812  0.15515763  0.30791433     0.43900
N1391       N  0.88885324  0.15338553  0.26815756    -0.34400
N1392       N  0.89346112  0.16098473  0.28355279    -0.28700
C1393       C  0.90747642  0.17213563  0.28069036    -0.04800
C1394       C  0.91203059  0.17144792  0.26262843     0.07400
C1395       C  0.89977535  0.15950054  0.25512447     0.01200
H1396       H  0.91416878  0.17977035  0.29112267     0.08900
H1397       H  0.89876424  0.15544058  0.24121919     0.08000
N1398       N  0.86727493  0.14604035  0.33043022    -0.35900
N1399       N  0.85563139  0.13257130  0.33006935    -0.28000
C1400       C  0.84894456  0.13006178  0.34668469    -0.03300
C1401       C  0.85666928  0.14262621  0.35808275     0.05300
C1402       C  0.86817462  0.15256756  0.34726044     0.03400
H1403       H  0.83863529  0.12031072  0.35000894     0.08500
H1404       H  0.87647541  0.16385388  0.35127598     0.07400
C1405       C  0.94871829  0.18326119  0.22910102    -0.21000
C1406       C  0.95531370  0.19963060  0.23589063    -0.09100
C1407       C  0.94781369  0.20645569  0.25186724     0.29800
C1408       C  0.93384052  0.19719009  0.26052016    -0.21000
C1409       C  0.92705616  0.18097958  0.25348895    -0.09100
C1410       C  0.93485740  0.17399921  0.23775854     0.29800
F1411       F  0.92956175  0.15793511  0.23091834    -0.19600
H1412       H  0.95435372  0.17746868  0.21702367     0.18100
H1413       H  0.92816434  0.20287468  0.27262223     0.18100
F1414       F  0.95385611  0.22207831  0.25914778    -0.19600
C1415       C  0.94073307  0.25659806  0.15082860    -0.21000
C1416       C  0.93410667  0.27332850  0.15652732    -0.09100
C1417       C  0.94018463  0.28019159  0.17315141     0.29800
C1418       C  0.95258554  0.27052804  0.18362249    -0.21000
C1419       C  0.95920375  0.25379993  0.17787684    -0.09100
C1420       C  0.95307935  0.24694148  0.16127573     0.29800
F1421       F  0.95900499  0.23089383  0.15497185    -0.19600
H1422       H  0.93652672  0.25095572  0.13809486     0.18100
H1423       H  0.95692862  0.27615163  0.19633490     0.18100
F1424       F  0.93385485  0.29597983  0.17965054    -0.19600
C1425       C  0.05413506  0.19179608  0.26293612    -0.21000
C1426       C  0.05683244  0.17374055  0.25807459    -0.09100
C1427       C  0.04700492  0.16664265  0.24354776     0.29800
C1428       C  0.03511260  0.17752089  0.23386353    -0.21000
C1429       C  0.03261956  0.19570083  0.23843168    -0.09100
C1430       C  0.04220175  0.20272849  0.25321875     0.29800
F1431       F  0.04035465  0.22019920  0.25812073    -0.19600
H1432       H  0.06156922  0.19758654  0.27405955     0.18100
H1433       H  0.02770932  0.17158223  0.22279614     0.18100
F1434       F  0.04845506  0.14904462  0.23896606    -0.19600
C1435       C  0.05467101  0.27771017  0.17344646    -0.21000
C1436       C  0.06170550  0.26944589  0.15799986    -0.09100
C1437       C  0.05613016  0.25178610  0.15387829     0.29800
C1438       C  0.04374873  0.24284343  0.16483405    -0.21000
C1439       C  0.03649822  0.25119935  0.18010312    -0.09100
C1440       C  0.04222983  0.26875564  0.18439670     0.29800
F1441       F  0.03560549  0.27749046  0.19894415    -0.19600
H1442       H  0.05877006  0.29118226  0.17713203     0.18100
H1443       H  0.03959242  0.22938600  0.16110456     0.18100
F1444       F  0.06198614  0.24325243  0.13891103    -0.19600
C1445       C  0.19679925  0.25936535  0.94824145    -0.21000
C1446       C  0.18993191  0.24311949  0.95507842    -0.09100
C1447       C  0.17335521  0.23669853  0.94836379     0.29800
C1448       C  0.16401283  0.24638021  0.93517493    -0.21000
C1449       C  0.17088825  0.26264830  0.92833803    -0.09100
C1450       C  0.18748804  0.26901143  0.93502863     0.29800
F1451       F  0.19512575  0.28427174  0.92853639    -0.19600
H1452       H  0.20953175  0.26464048  0.95304503     0.18100
H1453       H  0.15124268  0.24114348  0.93046482     0.18100
F1454       F  0.16604972  0.22110219  0.95450779    -0.19600
C1455       C  0.17153109  0.23972991  0.03642221    -0.21000
C1456       C  0.18905864  0.24531983  0.03198966    -0.09100
C1457       C  0.19569313  0.26142403  0.03953557     0.29800
C1458       C  0.18492484  0.27160099  0.05111836    -0.21000
C1459       C  0.16741176  0.26594884  0.05551271    -0.09100
C1460       C  0.16080370  0.24988057  0.04796254     0.29800
F1461       F  0.14372317  0.24422452  0.05112687    -0.19600
H1462       H  0.16590990  0.22756103  0.03069848     0.18100
H1463       H  0.19040109  0.28384559  0.05681414     0.18100
F1464       F  0.21255958  0.26739314  0.03580333    -0.19600
C1465       C  0.27033373  0.18349926  0.93519965    -0.21000
C1466       C  0.26487651  0.16581601  0.93132604    -0.09100
C1467       C  0.24992126  0.15861507  0.94042796     0.29800
C1468       C  0.24056390  0.16899082  0.95294950    -0.21000
C1469       C  0.24589355  0.18674538  0.95676577    -0.09100
C1470       C  0.26095113  0.19391905  0.94771113     0.29800
F1471       F  0.26653564  0.21105271  0.95071454    -0.19600
H1472       H  0.28174178  0.18939738  0.92831617     0.18100
H1473       H  0.22920903  0.16298471  0.95982939     0.18100
F1474       F  0.24465861  0.14133747  0.93773280    -0.19600
C1475       C  0.23759445  0.17199866  0.04110062    -0.21000
C1476       C  0.24502110  0.18818264  0.03466531    -0.09100
C1477       C  0.26150901  0.19415470  0.04195790     0.29800
C1478       C  0.27003179  0.18428223  0.05559347    -0.21000
C1479       C  0.26238212  0.16827624  0.06224306    -0.09100
C1480       C  0.24613107  0.16211554  0.05462616     0.29800
F1481       F  0.23861142  0.14629476  0.05980843    -0.19600
H1482       H  0.22508831  0.16684845  0.03561279     0.18100
H1483       H  0.28252935  0.18937347  0.06113414     0.18100
F1484       F  0.26941700  0.20953994  0.03604660    -0.19600
C1485       C  0.18518241  0.95512182  0.25985551    -0.21000
C1486       C  0.17904241  0.96086058  0.24288806    -0.09100
C1487       C  0.16286253  0.95359978  0.23615200     0.29800
C1488       C  0.15304516  0.94115743  0.24629255    -0.21000
C1489       C  0.15904833  0.93552951  0.26335938    -0.09100
C1490       C  0.17539625  0.94260792  0.26998229     0.29800
F1491       F  0.18224232  0.93731976  0.28606066    -0.19600
H1492       H  0.19762680  0.96036326  0.26539870     0.18100
H1493       H  0.14053726  0.93615130  0.24073921     0.18100
F1494       F  0.15637438  0.95851924  0.21978928    -0.19600
C1495       C  0.17346984  0.05751708  0.26828467    -0.21000
C1496       C  0.15861486  0.06557348  0.25968359    -0.09100
C1497       C  0.15430877  0.06018110  0.24203522     0.29800
C1498       C  0.16454809  0.04708467  0.23339429    -0.21000
C1499       C  0.17930046  0.03894568  0.24201765    -0.09100
C1500       C  0.18371890  0.04436423  0.25961129     0.29800
F1501       F  0.19774582  0.03682834  0.26859352    -0.19600
H1502       H  0.17727118  0.06140108  0.28178653     0.18100
H1503       H  0.16076125  0.04322296  0.21986452     0.18100
F1504       F  0.13987952  0.06701469  0.23317177    -0.19600
C1505       C  0.25192033  0.04572199  0.19512149    -0.21000
C1506       C  0.23569489  0.03922391  0.18781175    -0.09100
C1507       C  0.22948863  0.04660611  0.17147597     0.29800
C1508       C  0.23939980  0.06002634  0.16272403    -0.21000
C1509       C  0.25568208  0.06647054  0.16998906    -0.09100
C1510       C  0.26178748  0.05918447  0.18641714     0.29800
F1511       F  0.27702217  0.06529096  0.19445128    -0.19600
H1512       H  0.25700705  0.04046019  0.20773166     0.18100
H1513       H  0.23433461  0.06520060  0.15008849     0.18100
F1514       F  0.21386467  0.04091266  0.16385396    -0.19600
C1515       C  0.23958550  0.94378539  0.15888427    -0.21000
C1516       C  0.25499047  0.93562052  0.16619195    -0.09100
C1517       C  0.26028133  0.94013758  0.18381783     0.29800
C1518       C  0.25048958  0.95275560  0.19369799    -0.21000
C1519       C  0.23518051  0.96107753  0.18631381    -0.09100
C1520       C  0.22977827  0.95636262  0.16874523     0.29800
F1521       F  0.21518759  0.96406703  0.16087022    -0.19600
H1522       H  0.23524272  0.94069370  0.14533130     0.18100
H1523       H  0.25489037  0.95594654  0.20721507     0.18100
F1524       F  0.27461380  0.93206532  0.19176377    -0.19600
C1525       C  0.16593162  0.93802254  0.74587216    -0.21000
C1526       C  0.17366097  0.92972133  0.73083406    -0.09100
C1527       C  0.19098806  0.93507251  0.72535913     0.29800
C1528       C  0.20029974  0.94844753  0.73483724    -0.21000
C1529       C  0.19255684  0.95674152  0.74993123    -0.09100
C1530       C  0.17516896  0.95137585  0.75531188     0.29800
F1531       F  0.16692184  0.95904972  0.76962925    -0.19600
H1532       H  0.15253598  0.93433456  0.75027252     0.18100
H1533       H  0.21368193  0.95218551  0.73042593     0.18100
F1534       F  0.19921090  0.92701734  0.71125134    -0.19600
C1535       C  0.26465478  0.04089048  0.80121804    -0.21000
C1536       C  0.24804734  0.03413294  0.80730247    -0.09100
C1537       C  0.24148838  0.04001330  0.82405575     0.29800
C1538       C  0.25118056  0.05252015  0.83419995    -0.21000
C1539       C  0.26767653  0.05939536  0.82806343    -0.09100
C1540       C  0.27441053  0.05335609  0.81145452     0.29800
F1541       F  0.29010682  0.05985462  0.80475647    -0.19600
H1542       H  0.27010141  0.03660698  0.78844308     0.18100
H1543       H  0.24578649  0.05668374  0.84703011     0.18100
F1544       F  0.22574831  0.03365555  0.83081419    -0.19600
C1545       C  0.18804984  0.05240532  0.72146619    -0.21000
C1546       C  0.17169012  0.05896993  0.72825663    -0.09100
C1547       C  0.16585557  0.05289729  0.74522770     0.29800
C1548       C  0.17623793  0.04076312  0.75513767    -0.21000
C1549       C  0.19263580  0.03422674  0.74843770    -0.09100
C1550       C  0.19846443  0.04020212  0.73141082     0.29800
F1551       F  0.21413576  0.03423411  0.72425415    -0.19600
H1552       H  0.19293051  0.05686225  0.70850011     0.18100
H1553       H  0.17123895  0.03632467  0.76807294     0.18100
F1554       F  0.14981782  0.05813045  0.75212369    -0.19600
C1555       C  0.95692278  0.19630420  0.72816899    -0.21000
C1556       C  0.96511629  0.18825204  0.74324511    -0.09100
C1557       C  0.95979046  0.17071306  0.74815026     0.29800
C1558       C  0.94655182  0.16163728  0.73830356    -0.21000
C1559       C  0.93828867  0.16969056  0.72329973    -0.09100
C1560       C  0.94364605  0.18719544  0.71830447     0.29800
F1561       F  0.93574687  0.19579398  0.70424805    -0.19600
H1562       H  0.96064315  0.20980277  0.72408363     0.18100
H1563       H  0.94296426  0.14810569  0.74236196     0.18100
F1564       F  0.96749444  0.16212858  0.76233284    -0.19600
C1565       C  0.04964499  0.19190065  0.72914111    -0.21000
C1566       C  0.04357815  0.18642105  0.74618004    -0.09100
C1567       C  0.05110750  0.17082884  0.75395673     0.29800
C1568       C  0.06402257  0.16085584  0.74467358    -0.21000
C1569       C  0.06981308  0.16611684  0.72746677    -0.09100
C1570       C  0.06262187  0.18196227  0.71988944     0.29800
F1571       F  0.06831535  0.18818776  0.70371730    -0.19600
H1572       H  0.04430155  0.20392766  0.72286978     0.18100
H1573       H  0.06924599  0.14878452  0.75093165     0.18100
F1574       F  0.04604652  0.16510710  0.77053935    -0.19600
C1575       C  0.04805555  0.26038353  0.79603193    -0.21000
C1576       C  0.04242422  0.24325058  0.80180547    -0.09100
C1577       C  0.04938803  0.23643839  0.81808453     0.29800
C1578       C  0.06156302  0.24661052  0.82824835    -0.21000
C1579       C  0.06718317  0.26378280  0.82251131    -0.09100
C1580       C  0.06025069  0.27055258  0.80619137     0.29800
F1581       F  0.06548679  0.28678661  0.79968637    -0.19600
H1582       H  0.04298049  0.26602319  0.78357551     0.18100
H1583       H  0.06645758  0.24098395  0.84076443     0.18100
F1584       F  0.04450991  0.21994171  0.82427580    -0.19600
C1585       C  0.27304300  0.93876388  0.81424678    -0.21000
C1586       C  0.26500131  0.93226516  0.83007296    -0.09100
C1587       C  0.24784310  0.93870184  0.83482420     0.29800
C1588       C  0.23896370  0.95112304  0.82386123    -0.21000
C1589       C  0.24692482  0.95755209  0.80796772    -0.09100
C1590       C  0.26415271  0.95124036  0.80327134     0.29800
F1591       F  0.27251452  0.95711246  0.78814660    -0.19600
H1592       H  0.28617369  0.93401961  0.81017364     0.18100
H1593       H  0.22581772  0.95582360  0.82797532     0.18100
F1594       F  0.23974591  0.93348620  0.85031513    -0.19600
C1595       C  0.94659976  0.24925504  0.82586422    -0.21000
C1596       C  0.94043446  0.26576136  0.81900775    -0.09100
C1597       C  0.94715167  0.27178819  0.80233810     0.29800
C1598       C  0.95964489  0.26143858  0.79283630    -0.21000
C1599       C  0.96576920  0.24488638  0.79968223    -0.09100
C1600       C  0.95913111  0.23895274  0.81642904     0.29800
F1601       F  0.96479041  0.22325371  0.82387147    -0.19600
H1602       H  0.94189987  0.24434309  0.83873792     0.18100
H1603       H  0.96447719  0.26640960  0.78002528     0.18100
F1604       F  0.94133422  0.28740651  0.79488038    -0.19600
C1605       C  0.73867875  0.20266846  0.93779233    -0.21000
C1606       C  0.75410823  0.19574893  0.94632043    -0.09100
C1607       C  0.75991498  0.17828210  0.94179808     0.29800
C1608       C  0.75049774  0.16812972  0.92911285    -0.21000
C1609       C  0.73504532  0.17498306  0.92068200    -0.09100
C1610       C  0.72921528  0.19243392  0.92510057     0.29800
F1611       F  0.71470647  0.19985921  0.91683829    -0.19600
H1612       H  0.73393642  0.21607291  0.94088275     0.18100
H1613       H  0.75520010  0.15469303  0.92611324     0.18100
F1614       F  0.77457844  0.17078892  0.94974055    -0.19600
C1615       C  0.80581094  0.26834741  0.93933685    -0.21000
C1616       C  0.81145621  0.25162738  0.94622462    -0.09100
C1617       C  0.82791449  0.24447136  0.94016505     0.29800
C1618       C  0.83835304  0.25384395  0.92764544    -0.21000
C1619       C  0.83280428  0.27059249  0.92086462    -0.09100
C1620       C  0.81632812  0.27776476  0.92682233     0.29800
F1621       F  0.81009107  0.29363232  0.92028142    -0.19600
H1622       H  0.79320682  0.27420909  0.94365130     0.18100
H1623       H  0.85101796  0.24802638  0.92347897     0.18100
F1624       F  0.83410649  0.22844401  0.94636642    -0.19600
C1625       C  0.83702914  0.25671723  0.04173202    -0.21000
C1626       C  0.83079026  0.27312627  0.04856400    -0.09100
C1627       C  0.81402311  0.27969459  0.04253623     0.29800
C1628       C  0.80382974  0.26994068  0.02999579    -0.21000
C1629       C  0.81010315  0.25348653  0.02317693    -0.09100
C1630       C  0.82693744  0.24703168  0.02917507     0.29800
F1631       F  0.83387629  0.23141795  0.02282422    -0.19600
H1632       H  0.84995119  0.25142274  0.04590697     0.18100
H1633       H  0.79095933  0.27526964  0.02568330     0.18100
F1634       F  0.80716709  0.29525235  0.04907846    -0.19600
C1635       C  0.73510879  0.20518412  0.02961338    -0.21000
C1636       C  0.75163674  0.19820273  0.02366795    -0.09100
C1637       C  0.75757368  0.18170703  0.03091996     0.29800
C1638       C  0.74729137  0.17262861  0.04380681    -0.21000
C1639       C  0.73081515  0.17962697  0.04986836    -0.09100
C1640       C  0.72480499  0.19608191  0.04253679     0.29800
F1641       F  0.70923774  0.20374035  0.04808894    -0.19600
H1642       H  0.73013197  0.21782215  0.02432665     0.18100
H1643       H  0.75227747  0.15993446  0.04889676     0.18100
F1644       F  0.77331858  0.17419927  0.02559608    -0.19600
C1645       C  0.72039387  0.95032549  0.17336540    -0.21000
C1646       C  0.72735316  0.94371564  0.15712374    -0.09100
C1647       C  0.74391075  0.95058425  0.15089881     0.29800
C1648       C  0.75321255  0.96359489  0.16079372    -0.21000
C1649       C  0.74626838  0.97019717  0.17704290    -0.09100
C1650       C  0.72967466  0.96340118  0.18323691     0.29800
F1651       F  0.72230422  0.96935572  0.19879690    -0.19600
H1652       H  0.70776453  0.94527973  0.17858234     0.18100
H1653       H  0.76584200  0.96864712  0.15555303     0.18100
F1654       F  0.75095110  0.94528163  0.13496918    -0.19600
C1655       C  0.75323493  0.05359763  0.15810912    -0.21000
C1656       C  0.74605499  0.04765188  0.17455984    -0.09100
C1657       C  0.72917551  0.05436122  0.17996195     0.29800
C1658       C  0.71995366  0.06682818  0.16920639    -0.21000
C1659       C  0.72728863  0.07294639  0.15287850    -0.09100
C1660       C  0.74401734  0.06601026  0.14736695     0.29800
F1661       F  0.75136082  0.07076688  0.13136598    -0.19600
H1662       H  0.76605097  0.04855458  0.15341079     0.18100
H1663       H  0.70714268  0.07190025  0.17386259     0.18100
F1664       F  0.72150535  0.04895222  0.19561727    -0.19600
C1665       C  0.79471547  0.05721801  0.24728250    -0.21000
C1666       C  0.80164730  0.05008874  0.23124151    -0.09100
C1667       C  0.81799429  0.05707480  0.22456663     0.29800
C1668       C  0.82713761  0.07067255  0.23385608    -0.21000
C1669       C  0.82032510  0.07759766  0.25001559    -0.09100
C1670       C  0.80387571  0.07080670  0.25656800     0.29800
F1671       F  0.79631629  0.07756075  0.27169258    -0.19600
H1672       H  0.78209934  0.05231051  0.25269181     0.18100
H1673       H  0.83977878  0.07555452  0.22850061     0.18100
F1674       F  0.82529014  0.05077029  0.20910954    -0.19600
C1675       C  0.82830854  0.95292913  0.23918234    -0.21000
C1676       C  0.81989518  0.94436257  0.25378286    -0.09100
C1677       C  0.80195770  0.94885655  0.25782642     0.29800
C1678       C  0.79291505  0.96199086  0.24776915    -0.21000
C1679       C  0.80144513  0.97083994  0.23337451    -0.09100
C1680       C  0.81925923  0.96600087  0.22907119     0.29800
F1681       F  0.82814274  0.97409224  0.21531890    -0.19600
H1682       H  0.84210419  0.94977941  0.23575978     0.18100
H1683       H  0.77912072  0.96514349  0.25121292     0.18100
F1684       F  0.79293193  0.94025359  0.27116341    -0.19600
C1685       C  0.94300361  0.76926725  0.16802407    -0.21000
C1686       C  0.94961672  0.76153400  0.18399088    -0.09100
C1687       C  0.94351343  0.74426755  0.18891593     0.29800
C1688       C  0.93101136  0.73515451  0.17819383    -0.21000
C1689       C  0.92428580  0.74289776  0.16227122    -0.09100
C1690       C  0.93055296  0.76010958  0.15723951     0.29800
F1691       F  0.92511879  0.76803512  0.14171221    -0.19600
H1692       H  0.94754303  0.78245750  0.16375949     0.18100
H1693       H  0.92649123  0.72201803  0.18257274     0.18100
F1694       F  0.94965542  0.73602734  0.20403292    -0.19600
C1695       C  0.93946963  0.81044538  0.25667873    -0.21000
C1696       C  0.94764973  0.81731368  0.24104302    -0.09100
C1697       C  0.94255867  0.83454157  0.23494371     0.29800
C1698       C  0.92982648  0.84458581  0.24435187    -0.21000
C1699       C  0.92179307  0.83784345  0.26006890    -0.09100
C1700       C  0.92666594  0.82053641  0.26609611     0.29800
F1701       F  0.91880664  0.81311774  0.28080320    -0.19600
H1702       H  0.94296602  0.79720461  0.26166334     0.18100
H1703       H  0.92651279  0.85787689  0.23940680     0.18100
F1704       F  0.94999966  0.84191891  0.21999024    -0.19600
C1705       C  0.02940846  0.83381157  0.24007455    -0.21000
C1706       C  0.02466939  0.81624656  0.24527121    -0.09100
C1707       C  0.03235120  0.80902688  0.26107840     0.29800
C1708       C  0.04465178  0.81916590  0.27118606    -0.21000
C1709       C  0.04958740  0.83658798  0.26571943    -0.09100
C1710       C  0.04164329  0.84389964  0.25015423     0.29800
F1711       F  0.04526657  0.86101418  0.24488009    -0.19600
H1712       H  0.02351114  0.83989943  0.22820373     0.18100
H1713       H  0.05060301  0.81322951  0.28310652     0.18100
F1714       F  0.02822942  0.79212530  0.26668455    -0.19600
C1715       C  0.03180205  0.76507460  0.17037789    -0.21000
C1716       C  0.02719499  0.76036743  0.18811182    -0.09100
C1717       C  0.03604263  0.74566422  0.19620785     0.29800
C1718       C  0.04917450  0.73606441  0.18677706    -0.21000
C1719       C  0.05388707  0.74087139  0.16911800    -0.09100
C1720       C  0.04491197  0.75545079  0.16093985     0.29800
F1721       F  0.04833760  0.76013481  0.14363829    -0.19600
H1722       H  0.02507587  0.77613384  0.16365823     0.18100
H1723       H  0.05590108  0.72500523  0.19347923     0.18100
F1724       F  0.03227574  0.74067866  0.21335738    -0.19600
C1725       C  0.18686670  0.73584854  0.95612995    -0.21000
C1726       C  0.17974552  0.75199342  0.96280800    -0.09100
C1727       C  0.16281987  0.75777614  0.95648363     0.29800
C1728       C  0.15348117  0.74768997  0.94364276    -0.21000
C1729       C  0.16073295  0.73167038  0.93674680    -0.09100
C1730       C  0.17757188  0.72581425  0.94322791     0.29800
F1731       F  0.18550721  0.71078237  0.93671577    -0.19600
H1732       H  0.19987772  0.73106484  0.96065996     0.18100
H1733       H  0.14047639  0.75248967  0.93915406     0.18100
F1734       F  0.15522338  0.77318133  0.96259852    -0.19600
C1735       C  0.18733933  0.73996471  0.04714786    -0.21000
C1736       C  0.18135945  0.75659504  0.04034978    -0.09100
C1737       C  0.16523006  0.76381760  0.04714572     0.29800
C1738       C  0.15537592  0.75452122  0.06021998    -0.21600
C1739       C  0.16123016  0.73780214  0.06688270    -0.09100
C1740       C  0.17745855  0.73065071  0.06022653     0.29800
F1741       F  0.18409376  0.71485950  0.06653389    -0.19600
H1742       H  0.19970769  0.73404388  0.04227983     0.18100
H1743       H  0.14292559  0.76038678  0.06490445     0.18100
F1744       F  0.15878956  0.77981173  0.04111462    -0.19600
C1745       C  0.23082429  0.82317195  0.95096169    -0.21000
C1746       C  0.23688004  0.80657066  0.95771784    -0.09100
C1747       C  0.25288428  0.79926554  0.95070590     0.29800
C1748       C  0.26263062  0.80855145  0.93753923    -0.21000
C1749       C  0.25671648  0.82527420  0.93098223    -0.09100
C1750       C  0.24057825  0.83246570  0.93781928     0.29800
F1751       F  0.23447668  0.84880787  0.93245289    -0.19600
H1752       H  0.21863012  0.82922410  0.95610725     0.18100
H1753       H  0.27486064  0.80255009  0.93244422     0.18100
F1754       F  0.25928072  0.78320567  0.95660082    -0.19600
C1755       C  0.23225781  0.82896734  0.04025312    -0.21000
C1756       C  0.23919907  0.81234523  0.03464737    -0.09100
C1757       C  0.25633595  0.80707049  0.04090329     0.29800
C1758       C  0.26598494  0.81809092  0.05278620    -0.21000
C1759       C  0.25879742  0.83453519  0.05866429    -0.09100
C1760       C  0.24189107  0.83996520  0.05202211     0.29800
F1761       F  0.23473892  0.85612445  0.05645466    -0.19600
H1762       H  0.21927525  0.83358651  0.03548536     0.18100
H1763       H  0.27897489  0.81357144  0.05761195     0.18100
F1764       F  0.26382545  0.79131457  0.03560860    -0.19600
C1765       C  0.95163323  0.82661443  0.75620124    -0.21000
C1766       C  0.95848032  0.81030286  0.74960139    -0.09100
C1767       C  0.95140428  0.80346829  0.73338745     0.29800
C1768       C  0.93774191  0.81267384  0.72424048    -0.21000
C1769       C  0.93077178  0.82890330  0.73091761    -0.09100
C1770       C  0.93800456  0.83584820  0.74702425     0.29800
F1771       F  0.93234023  0.85177263  0.75380118    -0.19600
H1772       H  0.95684299  0.83232251  0.76855619     0.18100
H1773       H  0.93247313  0.80687861  0.71196477     0.18100
F1774       F  0.95752241  0.78781398  0.72633814    -0.19600
C1775       C  0.04216049  0.73818719  0.80115019    -0.21000
C1776       C  0.03512899  0.75432861  0.80798524    -0.09100
C1777       C  0.04143549  0.76052968  0.82474408     0.29800
C1778       C  0.05411004  0.75058034  0.83447963    -0.21000
C1779       C  0.06093921  0.73429104  0.82779238    -0.09100
C1780       C  0.05495141  0.72830376  0.81083153     0.29800
F1781       F  0.06168011  0.71316162  0.80328298    -0.19600
H1782       H  0.03780468  0.73316022  0.78818346     0.18100
H1783       H  0.05835693  0.75561502  0.84746246     0.18100
F1784       F  0.03534765  0.77615771  0.83187650    -0.19600
C1785       C  0.04711420  0.80096020  0.73847390    -0.21000
C1786       C  0.03858630  0.80925312  0.75311067    -0.09100
C1787       C  0.04492082  0.82619677  0.75885990     0.29800
C1788       C  0.05919395  0.83463980  0.74989383    -0.21000
C1789       C  0.06746335  0.82644679  0.73505109    -0.09100
C1790       C  0.06139965  0.80935295  0.72958705     0.29800
F1791       F  0.06951932  0.80043388  0.71595283    -0.19600
H1792       H  0.04281609  0.78780747  0.73390390     0.18100
H1793       H  0.06353436  0.84779429  0.75440443     0.18100
F1794       F  0.03726164  0.83477133  0.77298808    -0.19600
C1795       C  0.93162341  0.75467007  0.82659359    -0.21000
C1796       C  0.92883565  0.73613386  0.82379361    -0.09100
C1797       C  0.93977578  0.72735019  0.81102901     0.29800
C1798       C  0.95318604  0.73684277  0.80174484    -0.21000
C1799       C  0.95611193  0.75524272  0.80489971    -0.09100
C1800       C  0.94500117  0.76411338  0.81731284     0.29800
F1801       F  0.94685521  0.78201800  0.82038259    -0.19600
H1802       H  0.92358479  0.76204500  0.83615192     0.18100
H1803       H  0.96146746  0.72967136  0.79218361     0.18100
F1804       F  0.93759357  0.70965653  0.80724285    -0.19600
C1805       C  0.80281704  0.95626723  0.72596449    -0.21000
C1806       C  0.80863040  0.96204596  0.74300209    -0.09100
C1807       C  0.82373168  0.95368757  0.75086641     0.29800
C1808       C  0.83275487  0.94000419  0.74181268    -0.21000
C1809       C  0.82702570  0.93424701  0.72474655    -0.09100
C1810       C  0.81185427  0.94252875  0.71690285     0.29800
F1811       F  0.80538252  0.93715842  0.70071021    -0.19600
H1812       H  0.79120461  0.96237415  0.71959110     0.18100
H1813       H  0.84443554  0.93408064  0.74819610     0.18100
F1814       F  0.82986105  0.95862463  0.76734823    -0.19600
C1815       C  0.82927440  0.04561880  0.74780461    -0.21000
C1816       C  0.81306653  0.03927770  0.74034636    -0.09100
C1817       C  0.80837888  0.04480285  0.72280264     0.29800
C1818       C  0.81956381  0.05657626  0.71320380    -0.21000
C1819       C  0.83566850  0.06309253  0.72077632    -0.09100
C1820       C  0.84048746  0.05727344  0.73819329     0.29800
F1821       F  0.85627107  0.06233971  0.74588860    -0.19600
H1822       H  0.83343622  0.04144376  0.76114559     0.18100
H1823       H  0.81543903  0.06074473  0.69986174     0.18100
F1824       F  0.79307159  0.03879365  0.71479413    -0.19600
C1825       C  0.73340903  0.06729992  0.79773391    -0.21000
C1826       C  0.73755349  0.07023609  0.81593973    -0.09100
C1827       C  0.75072756  0.05944972  0.82424370     0.29800
C1828       C  0.75971487  0.04627077  0.81440358    -0.21000
C1829       C  0.75567710  0.04339401  0.79615909    -0.09100
C1830       C  0.74233157  0.05403000  0.78790327     0.29800
F1831       F  0.73806373  0.05185493  0.77028416    -0.19600
H1832       H  0.72337822  0.07545993  0.79098534     0.18100
H1833       H  0.76968972  0.03808320  0.82121234     0.18100
F1834       F  0.75452464  0.06112563  0.84201713    -0.19600
C1835       C  0.72683421  0.94519999  0.80070811    -0.21000
C1836       C  0.73297407  0.93959937  0.81772422    -0.09100
C1837       C  0.74885642  0.94733967  0.82466312     0.29800
C1838       C  0.75840496  0.96009176  0.81466505    -0.21000
C1839       C  0.75237505  0.96558867  0.79758750    -0.09100
C1840       C  0.73636660  0.95802753  0.79071823     0.29800
F1841       F  0.72993404  0.96283505  0.77429996    -0.19600
H1842       H  0.71472975  0.93946767  0.79493239     0.18100
H1843       H  0.77055156  0.96576365  0.82043774     0.18100
F1844       F  0.75501779  0.94306131  0.84131137    -0.19600
C1845       C  0.79387935  0.74442557  0.94400292    -0.21000
C1846       C  0.80160688  0.75979299  0.95189256    -0.09100
C1847       C  0.81882711  0.76534015  0.94614519     0.29800
C1848       C  0.82792283  0.75576887  0.93282124    -0.21000
C1849       C  0.82020571  0.74042158  0.92494215    -0.09100
C1850       C  0.80301210  0.73483513  0.93068017     0.29800
F1851       F  0.79471028  0.72044647  0.92309602    -0.19600
H1852       H  0.78062029  0.73987537  0.94800913     0.18100
H1853       H  0.84119746  0.76029124  0.92886155     0.18100
F1854       F  0.82703855  0.77994867  0.95342501    -0.19600
C1855       C  0.73246687  0.80829152  0.94125323    -0.21000
C1856       C  0.74728113  0.81615283  0.95007597    -0.09100
C1857       C  0.75289561  0.83349574  0.94479573     0.29800
C1858       C  0.74384446  0.84264611  0.93107636    -0.21000
C1859       C  0.72897852  0.83484122  0.92235594    -0.09100
C1860       C  0.72340979  0.81747880  0.92751681     0.29800
F1861       F  0.70958288  0.80911208  0.91897117    -0.19600
H1862       H  0.72794667  0.79490095  0.94486288     0.18100
H1863       H  0.74833500  0.85604942  0.92749597     0.18100
F1864       F  0.76696830  0.84181213  0.95300445    -0.19600
C1865       C  0.74214460  0.84559702  0.04564726    -0.21000
C1866       C  0.72583662  0.83916939  0.05273688    -0.09100
C1867       C  0.71953127  0.82216511  0.04719617     0.29800
C1868       C  0.72938713  0.81194134  0.03489644    -0.21000
C1869       C  0.74573857  0.81835232  0.02784504    -0.09100
C1870       C  0.75200195  0.83539366  0.03337493     0.29800
F1871       F  0.76761587  0.84235382  0.02691716    -0.19600
H1872       H  0.74728752  0.85867662  0.04948577     0.18100
H1873       H  0.72421770  0.79888672  0.03098549     0.18100
F1874       F  0.70416760  0.81505518  0.05403368    -0.19600
C1875       C  0.79500618  0.74354688  0.03564671    -0.21000
C1876       C  0.80101487  0.76061924  0.03007497    -0.09100
C1877       C  0.81678521  0.76771083  0.03790531     0.29800
C1878       C  0.82624023  0.75790249  0.05086648    -0.21000
C1879       C  0.82029612  0.74081683  0.05644416    -0.09100
C1880       C  0.80447849  0.73372475  0.04866681     0.29800
F1881       F  0.79781064  0.71753215  0.05385058    -0.19600
H1882       H  0.78291334  0.73772358  0.02991389     0.18100
H1883       H  0.83840402  0.76373994  0.05638663     0.18100
F1884       F  0.82316803  0.78416442  0.03313593    -0.19600
C1885       C  0.84292818  0.13541021  0.40682873    -0.21000
C1886       C  0.84228799  0.15318715  0.41307947    -0.09100
C1887       C  0.84711290  0.16729010  0.40140771     0.29800
C1888       C  0.85222487  0.16366156  0.38373155    -0.21000
C1889       C  0.85225084  0.14596239  0.37720081    -0.09100
C1890       C  0.84764626  0.13179297  0.38895685     0.29800
F1891       F  0.84787940  0.11446484  0.38326455    -0.19600
H1892       H  0.83925177  0.12438010  0.41563836     0.18100
H1893       H  0.85568576  0.17480691  0.37498703     0.18100
F1894       F  0.84702873  0.18461290  0.40714233    -0.19600
C1895       C  0.86500570  0.15712478  0.59300093    -0.21000
C1896       C  0.86807479  0.13881562  0.59646325    -0.09100
C1897       C  0.86543718  0.12632914  0.58250341     0.29800
C1898       C  0.85929200  0.13210529  0.56559308    -0.21000
C1899       C  0.85532902  0.15032830  0.56246530    -0.09100
C1900       C  0.85857666  0.16284813  0.57627927     0.29800
F1901       F  0.85555439  0.18066732  0.57367222    -0.19600
H1902       H  0.86699805  0.16703219  0.60348872     0.18100
H1903       H  0.85699589  0.12222383  0.55514374     0.18100
F1904       F  0.86884466  0.10859370  0.58517617    -0.19600
C1905       C  0.86460069  0.42477105  0.85763730    -0.21000
C1906       C  0.86234125  0.42865315  0.83928237    -0.09100
C1907       C  0.86665212  0.41542813  0.82652173     0.29800
C1908       C  0.87265316  0.39851252  0.83207625    -0.21000
C1909       C  0.87408596  0.39430549  0.85042488    -0.09100
C1910       C  0.87021488  0.40765497  0.86321613     0.29800
F1911       F  0.87187075  0.40416187  0.88106414    -0.19600
H1912       H  0.86137701  0.43478924  0.86768912     0.18100
H1913       H  0.87555094  0.38844909  0.82197224     0.18100
F1914       F  0.86506921  0.41884218  0.80865099    -0.19600
C1915       C  0.86219220  0.58172474  0.85203675    -0.21000
C1916       C  0.84396474  0.57706515  0.84991896    -0.09100
C1917       C  0.83072718  0.59004713  0.85360813     0.29800
C1918       C  0.83568757  0.60743426  0.85871618    -0.21000
C1919       C  0.85390419  0.61234806  0.86007283    -0.09100
C1920       C  0.86716441  0.59923467  0.85695284     0.29800
F1921       F  0.88490091  0.60326448  0.85879955    -0.19600
H1922       H  0.87263657  0.57194196  0.84939515     0.18100
H1923       H  0.82518981  0.61722145  0.86111149     0.18100
F1924       F  0.81294883  0.58594510  0.85244835    -0.19600
C1925       C  0.40892137  0.82991131  0.85650260    -0.21000
C1926       C  0.42167866  0.84318415  0.85220669    -0.09100
C1927       C  0.41670772  0.86139621  0.85326563     0.29800
C1928       C  0.39912831  0.86611126  0.85811056    -0.21000
C1929       C  0.38631429  0.85281027  0.86231826    -0.09100
C1930       C  0.39147363  0.83460767  0.86165306     0.29800
F1931       F  0.37948974  0.82125949  0.86514931    -0.19600
H1932       H  0.41244543  0.81579672  0.85573742     0.18100
H1933       H  0.39551385  0.88021338  0.85852743     0.18100
F1934       F  0.42853057  0.87460752  0.84880506    -0.19600
C1935       C  0.57508445  0.86063988  0.85374924    -0.21000
C1936       C  0.57026378  0.85963923  0.83550297    -0.09100
C1937       C  0.58316938  0.86402610  0.82237831     0.29800
C1938       C  0.60067581  0.86867914  0.82743945    -0.21000
C1939       C  0.60574753  0.86884256  0.84562262    -0.09100
C1940       C  0.59271984  0.86506468  0.85880538     0.29800
F1941       F  0.59697533  0.86578432  0.87654681    -0.19600
H1942       H  0.56535624  0.85742301  0.86409777     0.18100
H1943       H  0.61043570  0.87164465  0.81704421     0.18100
F1944       F  0.57888562  0.86390653  0.80462651    -0.19600
C1945       C  0.85454541  0.86842319  0.41388512    -0.21000
C1946       C  0.83625711  0.86646180  0.41825971    -0.09100
C1947       C  0.82318929  0.86979666  0.40491751     0.29800
C1948       C  0.82838261  0.87446483  0.38747292    -0.21000
C1949       C  0.84665737  0.87559421  0.38288481    -0.09100
C1950       C  0.85974292  0.87276085  0.39630006     0.29800
F1951       F  0.87752874  0.87430160  0.39244669    -0.19600
H1952       H  0.86484827  0.86596573  0.42391753     0.18100
H1953       H  0.81807287  0.87666356  0.37738118     0.18100
F1954       F  0.80536213  0.86858207  0.40870828    -0.19600
C1955       C  0.85412402  0.86654492  0.57197869    -0.21000
C1956       C  0.85245399  0.84838340  0.56709895    -0.09100
C1957       C  0.85608519  0.83500149  0.58001790     0.29800
C1958       C  0.86075725  0.83975049  0.59756828    -0.21000
C1959       C  0.86166424  0.85788334  0.60268762    -0.09100
C1960       C  0.85853075  0.87130338  0.58966482     0.29800
F1961       F  0.85984002  0.88898969  0.59396589    -0.19600
H1962       H  0.85142916  0.87707451  0.56224621     0.18100
H1963       H  0.86314952  0.82916329  0.60731605     0.18100
F1964       F  0.85519232  0.81729046  0.57570138    -0.19600
C1965       C  0.73258749  0.50726743  0.74498959    -0.21000
C1966       C  0.73478891  0.49583995  0.73017064    -0.09100
C1967       C  0.75037024  0.48522687  0.72903440     0.29800
C1968       C  0.76345894  0.48606731  0.74256975    -0.21000
C1969       C  0.76137694  0.49767633  0.75731817    -0.09100
C1970       C  0.74576184  0.50831316  0.75838236     0.29800
F1971       F  0.74290972  0.51938484  0.77255968    -0.19600
H1972       H  0.72071401  0.51560910  0.74611204     0.18100
H1973       H  0.77533704  0.47775119  0.74138590     0.18100
F1974       F  0.75273776  0.47369892  0.71512025    -0.19600
C1975       C  0.72901717  0.24977509  0.50880330    -0.21000
C1976       C  0.73089480  0.26508896  0.49784731    -0.09100
C1977       C  0.74562202  0.26625448  0.48605010     0.29800
C1978       C  0.75808971  0.25225943  0.48517351    -0.21000
C1979       C  0.75633699  0.23709587  0.49628796    -0.09100
C1980       C  0.74174365  0.23595498  0.50820782     0.29800
F1981       F  0.73948627  0.22125869  0.51884175    -0.19600
H1982       H  0.71776160  0.24858210  0.51796487     0.18100
H1983       H  0.76926849  0.25334887  0.47590232     0.18100
F1984       F  0.74768364  0.28060501  0.47492737    -0.19600
C1985       C  0.50759360  0.75122018  0.72633951    -0.21000
C1986       C  0.49852873  0.73498285  0.72977943    -0.09100
C1987       C  0.48833659  0.73330077  0.74560987     0.29800
C1988       C  0.48732779  0.74762359  0.75769798    -0.21000
C1989       C  0.49656150  0.76379800  0.75435545    -0.09100
C1990       C  0.50670459  0.76548526  0.73848496     0.29800
F1991       F  0.51537113  0.78104706  0.73439051    -0.19600
H1992       H  0.51547927  0.75287502  0.71422042     0.18100
H1993       H  0.47944569  0.74594751  0.76981072     0.18100
F1994       F  0.47885907  0.71808864  0.74918374    -0.19600
C1995       C  0.74862798  0.73608356  0.50143752    -0.21000
C1996       C  0.73226942  0.73841542  0.49225565    -0.09100
C1997       C  0.72960944  0.75412948  0.48200880     0.29800
C1998       C  0.74296296  0.76739092  0.48134588    -0.21000
C1999       C  0.75907058  0.76535060  0.49105295    -0.09100
C2000       C  0.76188699  0.74943994  0.50096338     0.29800
F2001       F  0.77754715  0.74661157  0.50996533    -0.19600
H2002       H  0.75101909  0.72404933  0.50931673     0.18100
H2003       H  0.74051246  0.77945888  0.47354075     0.18100
F2004       F  0.71426150  0.75656808  0.47237047    -0.19600
C2005       C  0.31599124  0.51456065  0.55329888    -0.21000
C2006       C  0.29941460  0.50902032  0.54603544    -0.09100
C2007       C  0.28491554  0.50582680  0.55780530     0.29800
C2008       C  0.28744987  0.50702942  0.57647425    -0.21000
C2009       C  0.30439259  0.51153645  0.58368536    -0.09100
C2010       C  0.31846019  0.51595597  0.57181088     0.29800
F2011       F  0.33468122  0.52173008  0.57796764    -0.19600
H2012       H  0.32726983  0.51765358  0.54461700     0.18100
H2013       H  0.27632273  0.50376784  0.58527308     0.18100
F2014       F  0.26852383  0.50086601  0.55139330    -0.19600
C2015       C  0.31170248  0.48249173  0.42926890    -0.21000
C2016       C  0.29668133  0.49119665  0.43662259    -0.09100
C2017       C  0.28312975  0.49756149  0.42498118     0.29800
C2018       C  0.28527501  0.49621380  0.40628732    -0.21000
C2019       C  0.30091630  0.48853042  0.39899904    -0.09100
C2020       C  0.31378760  0.48105434  0.41071429     0.29800
F2021       F  0.32853916  0.47249523  0.40426941    -0.19600
H2022       H  0.32211332  0.47705764  0.43794492     0.18100
H2023       H  0.27514887  0.50202125  0.39753176     0.18100
F2024       F  0.26842532  0.50608044  0.43156945    -0.19600
C2025       C  0.31330691  0.56342259  0.47895740    -0.21000
C2026       C  0.29695277  0.55525940  0.48384648    -0.09100
C2027       C  0.28214891  0.56632559  0.48801953     0.29800
C2028       C  0.28421352  0.58510348  0.48846082    -0.21000
C2029       C  0.30101249  0.59302875  0.48482922    -0.09100
C2030       C  0.31534497  0.58202835  0.47940978     0.29800
F2031       F  0.33145459  0.58922485  0.47463464    -0.19600
H2032       H  0.32482098  0.55535356  0.47521282     0.18100
H2033       H  0.27293719  0.59337253  0.49247404     0.18100
F2034       F  0.26600009  0.55906399  0.49254234    -0.19600
C2035       C  0.31649092  0.43745648  0.50076105    -0.21000
C2036       C  0.29933315  0.44524733  0.49941543    -0.09100
C2037       C  0.28414187  0.43387146  0.49991632     0.29800
C2038       C  0.28627596  0.41514813  0.50140926    -0.21000
C2039       C  0.30353202  0.40737554  0.50244234    -0.09100
C2040       C  0.31864545  0.41889857  0.50214345     0.29800
F2041       F  0.33569615  0.41245086  0.50236763    -0.19600
H2042       H  0.32850041  0.44573434  0.50036356     0.18100
H2043       H  0.27436773  0.40674170  0.50170051     0.18100
F2044       F  0.26725966  0.44072203  0.49872583    -0.19600
C2045       C  0.50708185  0.68287965  0.55769094    -0.21000
C2046       C  0.49954613  0.69846587  0.55004843    -0.09100
C2047       C  0.49236291  0.71168021  0.56151067     0.29800
C2048       C  0.49231012  0.70900071  0.58017118    -0.21000
C2049       C  0.49918967  0.69307107  0.58764400    -0.09100
C2050       C  0.50692620  0.68018176  0.57627372     0.29800
F2051       F  0.51444667  0.66500470  0.58313446    -0.19600
H2052       H  0.51295063  0.67262204  0.54923445     0.18100
H2053       H  0.48620975  0.71903353  0.58873094     0.18100
F2054       F  0.48456331  0.72672688  0.55469731    -0.19600
C2055       C  0.48357648  0.68901464  0.43106139    -0.21000
C2056       C  0.49139839  0.70397986  0.43949573    -0.09100
C2057       C  0.49861359  0.71785900  0.42875239     0.29800
C2058       C  0.49889387  0.71610017  0.40993122    -0.21000
C2059       C  0.49197141  0.70054012  0.40166200    -0.09100
C2060       C  0.48371585  0.68733074  0.41243125     0.29800
F2061       F  0.47574367  0.67267339  0.40499562    -0.19600
H2062       H  0.47752056  0.67835448  0.43897104     0.18100
H2063       H  0.50522471  0.72650191  0.40190593     0.18100
F2064       F  0.50628410  0.73256155  0.43641228    -0.19600
C2065       C  0.55898212  0.68892536  0.48117979    -0.21000
C2066       C  0.55086031  0.70345464  0.49001247    -0.09100
C2067       C  0.56185250  0.71672201  0.49791188     0.29800
C2068       C  0.58062312  0.71468992  0.49797590    -0.21000
C2069       C  0.58856525  0.69944261  0.49020889    -0.09100
C2070       C  0.57760303  0.68694214  0.48118301     0.29800
F2071       F  0.58484803  0.67264842  0.47250200    -0.19600
H2072       H  0.55084407  0.67878412  0.47456193     0.18100
H2073       H  0.58886225  0.72452214  0.50491236     0.18100
F2074       F  0.55448511  0.73098054  0.50652836    -0.19600
C2075       C  0.43275131  0.68168019  0.49458295    -0.21000
C2076       C  0.44049798  0.69843590  0.49864733    -0.09100
C2077       C  0.42915628  0.71269055  0.50374852     0.29800
C2078       C  0.41047092  0.71000581  0.50482534    -0.21000
C2079       C  0.40283918  0.69311764  0.50089221    -0.09100
C2080       C  0.41424496  0.67901894  0.49558980     0.29800
F2081       F  0.40760015  0.66275166  0.49064067    -0.19600
H2082       H  0.44103497  0.67050888  0.49032805     0.18100
H2083       H  0.40199037  0.72108031  0.50892669     0.18100
F2084       F  0.43606532  0.72906743  0.50796680    -0.19600
C2085       C  0.70876677  0.50675058  0.55938400    -0.21000
C2086       C  0.69302405  0.50365778  0.54924393    -0.09100
C2087       C  0.67667123  0.50086688  0.55839633     0.29800
C2088       C  0.67599849  0.50188411  0.57704213    -0.21000
C2089       C  0.69151236  0.50555301  0.58717924    -0.09100
C2090       C  0.70806543  0.50762941  0.57823245     0.29800
F2091       F  0.72338244  0.51117829  0.58757053    -0.19600
H2092       H  0.72156026  0.50879484  0.55272721     0.18100
H2093       H  0.66316617  0.49970083  0.58357087     0.18100
F2094       F  0.66118256  0.49707807  0.54942293    -0.19600
C2095       C  0.67380530  0.49908945  0.41074069    -0.21000
C2096       C  0.68898030  0.49405801  0.40075201    -0.09100
C2097       C  0.70552553  0.49178497  0.40972160     0.29800
C2098       C  0.70661446  0.49408273  0.42841528    -0.21000
C2099       C  0.69125774  0.49867611  0.43844146    -0.09100
C2100       C  0.67485503  0.50139671  0.42929307     0.29800
F2101       F  0.65972702  0.50634892  0.43819367    -0.19600
H2102       H  0.66097132  0.50133568  0.40417097     0.18100
H2103       H  0.71939691  0.49184406  0.43509615     0.18100
F2104       F  0.72043584  0.48662086  0.40060659    -0.19600
C2105       C  0.67779018  0.43852353  0.50530914    -0.21000
C2106       C  0.69302743  0.44673948  0.49773405    -0.09100
C2107       C  0.70705578  0.43583605  0.49128768     0.29800
C2108       C  0.70522844  0.41705840  0.49142810    -0.21000
C2109       C  0.68945884  0.40895805  0.49802376    -0.09100
C2110       C  0.67603709  0.41987747  0.50560260     0.29800
F2111       F  0.66117227  0.41259562  0.51334501    -0.19600
H2112       H  0.66703185  0.44658776  0.51087373     0.18100
H2113       H  0.71579284  0.40890461  0.48565386     0.18100
F2114       F  0.72206220  0.44327721  0.48400371    -0.19600
C2115       C  0.70588648  0.56810817  0.49608332    -0.21000
C2116       C  0.69078135  0.55742715  0.49198147    -0.09100
C2117       C  0.67420160  0.56598655  0.48866844     0.29800
C2118       C  0.67271816  0.58459977  0.49003159    -0.21000
C2119       C  0.68757929  0.59530612  0.49483755    -0.09100
C2120       C  0.70434987  0.58686129  0.49756384     0.29800
F2121       F  0.71910627  0.59650530  0.50237022    -0.19600
H2122       H  0.71883218  0.56188672  0.49872551     0.18100
H2123       H  0.65970106  0.59056942  0.48731236     0.18100
F2124       F  0.65924713  0.55642560  0.48421788    -0.19600
C2125       C  0.48027084  0.31720494  0.55591200    -0.21000
C2126       C  0.48888483  0.30240320  0.54807050    -0.09100
C2127       C  0.49552225  0.28861498  0.55927333     0.29800
C2128       C  0.49457607  0.29035518  0.57802729    -0.21000
C2129       C  0.48694451  0.30577756  0.58578404    -0.09100
C2130       C  0.47915390  0.31884181  0.57451421     0.29800
F2131       F  0.47047643  0.33329400  0.58143666    -0.19600
H2132       H  0.47455133  0.32773510  0.54758806     0.18100
H2133       H  0.50054758  0.28005343  0.58644949     0.18100
F2134       F  0.50378355  0.27399987  0.55219028    -0.19600
C2135       C  0.50614074  0.32187407  0.42994398    -0.21000
C2136       C  0.50005521  0.30580462  0.43782129    -0.09100
C2137       C  0.49426426  0.29173330  0.42652076     0.29800
C2138       C  0.49381774  0.29415516  0.40779824    -0.21000
C2139       C  0.49917580  0.31057345  0.40001687    -0.09100
C2140       C  0.50586980  0.32423146  0.41133461     0.29800
F2141       F  0.51239390  0.33988000  0.40452583    -0.19600
H2142       H  0.51104275  0.33280223  0.43825076     0.18100
H2143       H  0.48870009  0.28337333  0.39944514     0.18100
F2144       F  0.48827425  0.27595541  0.43353676    -0.19600
C2145       C  0.41062971  0.29050187  0.49268610    -0.21000
C2146       C  0.40251091  0.30743971  0.49070955    -0.09100
C2147       C  0.41333694  0.32247338  0.48683892     0.29800
C2148       C  0.43194279  0.32072712  0.48585405    -0.21000
C2149       C  0.44026485  0.30400755  0.48872903    -0.09100
C2150       C  0.42939360  0.28875248  0.49180052     0.29800
F2151       F  0.43683890  0.27233192  0.49465678    -0.19600
H2152       H  0.40250297  0.27874569  0.49560267     0.18100
H2153       H  0.43987088  0.33266986  0.48314207     0.18100
F2154       F  0.40598658  0.33892050  0.48386883    -0.19600
C2155       C  0.56139549  0.28991653  0.49544446    -0.21000
C2156       C  0.55045898  0.30471292  0.49970651    -0.09100
C2157       C  0.55867490  0.32077803  0.50554125     0.29800
C2158       C  0.57733713  0.32229096  0.50597229    -0.21000
C2159       C  0.58828325  0.30789108  0.50074533    -0.09100
C2160       C  0.58019550  0.29145253  0.49596462     0.29800
F2161       F  0.59034860  0.27724616  0.49076928    -0.19600
H2162       H  0.55541978  0.27736938  0.49104504     0.18100
H2163       H  0.58324016  0.33493970  0.51018065     0.18100
F2164       F  0.54874423  0.33520627  0.51062286    -0.19600
C2165       C  0.49826791  0.43920263  0.28126245    -0.21000
C2166       C  0.49056572  0.44978078  0.29487372    -0.09100
C2167       C  0.48152978  0.44114960  0.30906278     0.29800
C2168       C  0.48098883  0.42241925  0.31005018    -0.21000
C2169       C  0.48955252  0.41173603  0.29706317    -0.09100
C2170       C  0.49785886  0.42032823  0.28234086     0.29800
F2171       F  0.50641800  0.41063987  0.26952791    -0.19600
H2172       H  0.50527074  0.44554692  0.27016903     0.18100
H2173       H  0.47400378  0.41628555  0.32125901     0.18100
F2174       F  0.47321311  0.45080794  0.32208295    -0.19600
C2175       C  0.49684536  0.57140229  0.28352003    -0.21000
C2176       C  0.50343273  0.56015588  0.29725490    -0.09100
C2177       C  0.51200931  0.56801355  0.31219237     0.29800
C2178       C  0.51314892  0.58668210  0.31372866    -0.21000
C2179       C  0.50580777  0.59800747  0.30047046    -0.09100
C2180       C  0.49795181  0.59018311  0.28509259     0.29800
F2181       F  0.49045740  0.60057121  0.27206382    -0.19600
H2182       H  0.49021861  0.56566651  0.27187036     0.18100
H2183       H  0.51967145  0.59228961  0.32549363     0.18100
F2184       F  0.51935589  0.55766421  0.32536018    -0.19600
C2185       C  0.56180476  0.49385189  0.28252850    -0.21000
C2186       C  0.55184801  0.49972473  0.29745000    -0.09100
C2187       C  0.56100635  0.50337624  0.31364823     0.29800
C2188       C  0.57946418  0.50037668  0.31506853    -0.21000
C2189       C  0.58933600  0.49385062  0.30041538    -0.09100
C2190       C  0.58041026  0.49094437  0.28395405     0.29800
F2191       F  0.58944975  0.48456356  0.26949338    -0.19600
H2192       H  0.55510854  0.49102103  0.26988713     0.18100
H2193       H  0.58605293  0.50325802  0.32775013     0.18100
F2194       F  0.55219434  0.50996081  0.32817960    -0.19600
C2195       C  0.41420169  0.51770394  0.31260492    -0.21000
C2196       C  0.40332301  0.51124841  0.29855517    -0.09100
C2197       C  0.41164359  0.50553095  0.28255234     0.29800
C2198       C  0.43050756  0.50544614  0.28117500    -0.21000
C2199       C  0.44132857  0.51097747  0.29570726    -0.09100
C2200       C  0.43290414  0.51757093  0.31127814     0.29800
F2201       F  0.44271341  0.52376507  0.32540798    -0.19600
H2202       H  0.40823506  0.52266730  0.32488765     0.18100
H2203       H  0.43664609  0.50035739  0.26902178     0.18100
F2204       F  0.40171009  0.49908965  0.26864567    -0.19600
C2205       C  0.49151806  0.56405830  0.70576259    -0.21000
C2206       C  0.49281617  0.55345794  0.69019130    -0.09100
C2207       C  0.49221885  0.56199486  0.67328281     0.29800
C2208       C  0.49042082  0.58055897  0.67206986    -0.21000
C2209       C  0.48904621  0.59126103  0.68754784    -0.09100
C2210       C  0.48961990  0.58277847  0.70451430     0.29800
F2211       F  0.48802912  0.59238465  0.71989924    -0.19600
H2212       H  0.49188508  0.55785630  0.71896005     0.18100
H2213       H  0.49040033  0.58646802  0.65876849     0.18100
F2214       F  0.49349161  0.55252600  0.65774857    -0.19600
C2215       C  0.56491728  0.50249574  0.70664837    -0.21000
C2216       C  0.55371790  0.50529436  0.69163552    -0.09100
C2217       C  0.56166851  0.51060510  0.67531223     0.29800
C2218       C  0.58023973  0.51251601  0.67392729    -0.21000
C2219       C  0.59168333  0.50923296  0.68865921    -0.09100
C2220       C  0.58370532  0.50441030  0.70524576     0.29800
F2221       F  0.59384057  0.50148623  0.72014512    -0.19600
H2222       H  0.55915961  0.49854852  0.71944277     0.18100
H2223       H  0.58549206  0.51644462  0.66095661     0.18100
F2224       F  0.55153090  0.51409265  0.66049367    -0.19600
C2225       C  0.51253665  0.41685039  0.67617497    -0.21000
C2226       C  0.50484311  0.40583898  0.68941770    -0.09100
C2227       C  0.49806578  0.41378088  0.70517943     0.29800
C2228       C  0.49805187  0.43256374  0.70698551    -0.21000
C2229       C  0.50473035  0.44354581  0.69310497    -0.09100
C2230       C  0.51251921  0.43544629  0.67793821     0.29800
F2231       F  0.51988294  0.44550220  0.66456861    -0.19600
H2232       H  0.51831969  0.41106810  0.66415905     0.18100
H2233       H  0.49204339  0.43852129  0.71880547     0.18100
F2234       F  0.49045262  0.40357423  0.71827089    -0.19600
C2235       C  0.43515601  0.48510640  0.67658949    -0.21000
C2236       C  0.44319904  0.49344909  0.69149978    -0.09100
C2237       C  0.43209099  0.50136075  0.70456724     0.29800
C2238       C  0.41335442  0.50168236  0.70215982    -0.21000
C2239       C  0.40539871  0.49408316  0.68675539    -0.09100
C2240       C  0.41651493  0.48522921  0.67428313     0.29800
F2241       F  0.40947093  0.47660842  0.65981429    -0.19600
H2242       H  0.44337644  0.47859576  0.66650994     0.18100
H2243       H  0.40515956  0.50854489  0.71200451     0.18100
F2244       F  0.43935014  0.50968174  0.71910847    -0.19600
C2245       C  0.14468956  0.86241408  0.39310573    -0.21000
C2246       C  0.12630460  0.86506186  0.38968675    -0.09100
C2247       C  0.11375995  0.86138912  0.40336248     0.29800
C2248       C  0.11962034  0.85490122  0.42008358    -0.21000
C2249       C  0.13796633  0.85158050  0.42317443    -0.09100
C2250       C  0.15048726  0.85557354  0.40959652     0.29800
F2251       F  0.16838264  0.85302852  0.41231388    -0.19600
H2252       H  0.15459759  0.86512955  0.38277799     0.18100
H2253       H  0.10979442  0.85196896  0.43043533     0.18100
F2254       F  0.09591442  0.86420467  0.40061221    -0.19600
C2255       C  0.14181817  0.86209361  0.57685493    -0.21000
C2256       C  0.14475146  0.84398560  0.57248934    -0.09100
C2257       C  0.14303493  0.83075899  0.58592041     0.29800
C2258       C  0.13881427  0.83565975  0.60350182    -0.21000
C2259       C  0.13667134  0.85382139  0.60806817    -0.09100
C2260       C  0.13803460  0.86704283  0.59458843     0.29800
F2261       F  0.13555843  0.88467891  0.59853259    -0.19600
H2262       H  0.14305797  0.87244629  0.56665697     0.18100
H2263       H  0.13776318  0.82527554  0.61369047     0.18100
F2264       F  0.14534374  0.81307929  0.58203367    -0.19600
C2265       C  0.23185593  0.74815178  0.47730987    -0.21000
C2266       C  0.23347261  0.76219653  0.48978289    -0.09100
C2267       C  0.24883262  0.76312739  0.50082714     0.29800
C2268       C  0.26238202  0.75024182  0.49925465    -0.21000
C2269       C  0.26064398  0.73604495  0.48695736    -0.09100
C2270       C  0.24521614  0.73504527  0.47601502     0.29800
F2271       F  0.24321995  0.72166355  0.46378429    -0.19600
H2272       H  0.22010228  0.74717879  0.46872441     0.18100
H2273       H  0.27410854  0.75120209  0.50787669     0.18100
F2274       F  0.25098899  0.77671471  0.51280423    -0.19600
C2275       C  0.85704002  0.40088622  0.14146447    -0.21000
C2276       C  0.85847405  0.39677916  0.12311270    -0.09100
C2277       C  0.85344941  0.40987337  0.11033347     0.29800
C2278       C  0.84721729  0.42675442  0.11593228    -0.21000
C2279       C  0.84536581  0.43061744  0.13429869    -0.09100
C2280       C  0.85035745  0.41751594  0.14703346     0.29800
F2281       F  0.84901951  0.42087202  0.16491031    -0.19600
H2282       H  0.86070535  0.39103013  0.15157083     0.18100
H2283       H  0.84337634  0.43664713  0.10592331     0.18100
F2284       F  0.85478422  0.40647266  0.09246831    -0.19600
C2285       C  0.84331966  0.58611517  0.12457958    -0.21000
C2286       C  0.84274439  0.58106532  0.14277765    -0.09100
C2287       C  0.84691384  0.59399535  0.15597127     0.29800
C2288       C  0.85138647  0.61158465  0.15100673    -0.21000
C2289       C  0.85150634  0.61677569  0.13285706    -0.09100
C2290       C  0.84747598  0.60385160  0.11962917     0.29800
F2291       F  0.84790338  0.60824231  0.10191515    -0.19600
H2292       H  0.84016792  0.57641616  0.11419006     0.18100
H2293       H  0.85444602  0.62126743  0.16144219     0.18100
F2294       F  0.84701058  0.58960371  0.17369490    -0.19600
C2295       C  0.76055365  0.51061474  0.24553496    -0.21000
C2296       C  0.75795606  0.50066271  0.22971035    -0.09100
C2297       C  0.74196162  0.49076946  0.22752301     0.29800
C2298       C  0.72891310  0.49075229  0.24102314    -0.21000
C2299       C  0.73165775  0.50036059  0.25705187    -0.09100
C2300       C  0.74762087  0.51037512  0.25917706     0.29800
F2301       F  0.75057090  0.52028398  0.27420332    -0.19600
H2302       H  0.77273430  0.51841198  0.24744074     0.18100
H2303       H  0.71675042  0.48296189  0.23902240     0.18100
F2304       F  0.73868551  0.48151793  0.21214424    -0.19600
C2305       C  0.41303108  0.85938532  0.12727610    -0.21000
C2306       C  0.41737720  0.85833854  0.14562383    -0.09100
C2307       C  0.40420486  0.86261617  0.15843859     0.29800
C2308       C  0.38692255  0.86752874  0.15295393    -0.21000
C2309       C  0.38233450  0.86800476  0.13463423    -0.09100
C2310       C  0.39559726  0.86399981  0.12177644     0.29800
F2311       F  0.39181460  0.86476589  0.10393085    -0.19600
H2312       H  0.42302715  0.85616895  0.11719558     0.18100
H2313       H  0.37697709  0.87054823  0.16313714     0.18100
F2314       F  0.40808715  0.86228668  0.17628204    -0.19600
C2315       C  0.58045763  0.84414519  0.13299738    -0.21000
C2316       C  0.56712955  0.85674967  0.13726053    -0.09100
C2317       C  0.57119009  0.87520612  0.13608309     0.29800
C2318       C  0.58854726  0.88083392  0.13120322    -0.21000
C2319       C  0.60187698  0.86815567  0.12695728    -0.09100
C2320       C  0.59759198  0.84972739  0.12772657     0.29800
F2321       F  0.61017973  0.83702507  0.12418190    -0.19600
H2322       H  0.57761316  0.82987157  0.13384780     0.18100
H2323       H  0.59157575  0.89508194  0.13069332     0.18100
F2324       F  0.55867456  0.88773754  0.14040160    -0.19600
C2325       C  0.50745195  0.75347907  0.22873511    -0.21000
C2326       C  0.49662335  0.76870455  0.23126658    -0.09100
C2327       C  0.48666395  0.77030668  0.24721865     0.29800
C2328       C  0.48758365  0.75687566  0.26036327    -0.21000
C2329       C  0.49821912  0.74149851  0.25776258    -0.09100
C2330       C  0.50815856  0.73989684  0.24175541     0.29800
F2331       F  0.51896670  0.72550790  0.23885720    -0.19600
H2332       H  0.51524705  0.75199466  0.21653777     0.18100
H2333       H  0.47979808  0.75845041  0.27254766     0.18100
F2334       F  0.47646896  0.78509088  0.25037282    -0.19600
C2335       C  0.16806002  0.41045656  0.84721084    -0.21000
C2336       C  0.15489403  0.42385790  0.84514584    -0.09100
C2337       C  0.13667352  0.41918987  0.84751793     0.29800
C2338       C  0.13181047  0.40137862  0.85150395    -0.21000
C2339       C  0.14501252  0.38803621  0.85364055    -0.09100
C2340       C  0.16323735  0.39278160  0.85159695     0.29800
F2341       F  0.17637480  0.38020030  0.85313170    -0.19600
H2342       H  0.18216854  0.41367752  0.84541906     0.18100
H2343       H  0.11770288  0.39801353  0.85302631     0.18100
F2344       F  0.12351084  0.43162698  0.84527327    -0.19600
C2345       C  0.14071678  0.59626989  0.86630251    -0.21000
C2346       C  0.13626470  0.60982497  0.85387600    -0.09100
C2347       C  0.13646382  0.60580569  0.83541805     0.29800
C2348       C  0.14085725  0.58854484  0.82957371    -0.21000
C2349       C  0.14500393  0.57484972  0.84194235    -0.09100
C2350       C  0.14489406  0.57885301  0.86043428     0.29800
F2351       F  0.14939010  0.56616454  0.87278847    -0.19600
H2352       H  0.14074463  0.59911891  0.88058204     0.18100
H2353       H  0.14095417  0.58587823  0.81526101     0.18100
F2354       F  0.13299218  0.61870762  0.82294105    -0.19600
C2355       C  0.23274257  0.51764090  0.73807581    -0.21000
C2356       C  0.23514770  0.50632481  0.75304423    -0.09100
C2357       C  0.25154146  0.49707926  0.75506817     0.29800
C2358       C  0.26509497  0.49899222  0.74222307    -0.21000
C2359       C  0.26251320  0.50994837  0.72704110    -0.09100
C2360       C  0.24623019  0.51938499  0.72511731     0.29800
F2361       F  0.24346752  0.53058190  0.71093778    -0.19600
H2362       H  0.22029062  0.52497900  0.73625615     0.18100
H2363       H  0.27752419  0.49160690  0.74400980     0.18100
F2364       F  0.25471067  0.48652785  0.76964325    -0.19600
C2365       C  0.42108415  0.12959535  0.85024318    -0.21000
C2366       C  0.42471391  0.14803396  0.84832244    -0.09100
C2367       C  0.41109937  0.16055085  0.85216171     0.29800
C2368       C  0.39416588  0.15467857  0.85775060    -0.21000
C2369       C  0.39032871  0.13624930  0.85923695    -0.09100
C2370       C  0.40393574  0.12368892  0.85541831     0.29800
F2371       F  0.40075049  0.10576581  0.85692316    -0.19600
H2372       H  0.43138832  0.11975276  0.84724086     0.18100
H2373       H  0.38387920  0.16460343  0.86052494     0.18100
F2374       F  0.41420862  0.17849924  0.85071236    -0.19600
C2375       C  0.58079693  0.14550057  0.85541573    -0.21000
C2376       C  0.57541524  0.14739008  0.83742401    -0.09100
C2377       C  0.58815596  0.14496116  0.82369088     0.29800
C2378       C  0.60602955  0.14116197  0.82794392    -0.21000
C2379       C  0.61162983  0.13996572  0.84592555    -0.09100
C2380       C  0.59882167  0.14199130  0.85969406     0.29800
F2381       F  0.60365572  0.14043324  0.87723492    -0.19600
H2382       H  0.57116086  0.14734246  0.86617391     0.18100
H2383       H  0.61561898  0.13964062  0.81709732     0.18100
F2384       F  0.58333502  0.14620200  0.80611077    -0.19600
C2385       C  0.48141441  0.23613101  0.74173777    -0.21000
C2386       C  0.49539491  0.23565961  0.75445117    -0.09100
C2387       C  0.50885430  0.24898143  0.75406954     0.29800
C2388       C  0.50825485  0.26255481  0.74113246    -0.21000
C2389       C  0.49451580  0.26277812  0.72819439    -0.09100
C2390       C  0.48106404  0.24948912  0.72852958     0.29800
F2391       F  0.46737682  0.24970169  0.71639811    -0.19600
H2392       H  0.47091757  0.22599184  0.74187324     0.18100
H2393       H  0.51869461  0.27275698  0.74103453     0.18100
F2394       F  0.52230802  0.24918419  0.76645684    -0.19600
C2395       C  0.13749326  0.16237263  0.40502376    -0.21000
C2396       C  0.14104447  0.14895234  0.41784031    -0.09100
C2397       C  0.13806730  0.13083801  0.41330422     0.29800
C2398       C  0.13209381  0.12631193  0.39601653    -0.21000
C2399       C  0.12864327  0.13977271  0.38316941    -0.09100
C2400       C  0.13123665  0.15790506  0.38790773     0.29800
F2401       F  0.12858635  0.17131969  0.37578325    -0.19600
H2402       H  0.13968288  0.17641855  0.40823681     0.18100
H2403       H  0.13020934  0.11226375  0.39263868     0.18100
F2404       F  0.14170080  0.11749626  0.42525294    -0.19600
C2405       C  0.14299187  0.15703811  0.58050731    -0.21000
C2406       C  0.14787577  0.14451942  0.56733946    -0.09100
C2407       C  0.14782516  0.12609195  0.57168099     0.29800
C2408       C  0.14335252  0.12043435  0.58912012    -0.21000
C2409       C  0.13842958  0.13301531  0.60229417    -0.09100
C2410       C  0.13816104  0.15141107  0.59774199     0.29800
F2411       F  0.13398391  0.16410428  0.61011938    -0.19600
H2412       H  0.14295386  0.17129400  0.57744150     0.18100
H2413       H  0.14366228  0.10621622  0.59232065     0.18100
F2414       F  0.15279163  0.11365564  0.55933204    -0.19600
C2415       C  0.24688561  0.23602100  0.47779279    -0.21000
C2416       C  0.23272920  0.23773591  0.49014345    -0.09100
C2417       C  0.23213841  0.25293854  0.50131830     0.29800
C2418       C  0.24534086  0.26629917  0.49988493    -0.21000
C2419       C  0.25957643  0.26453363  0.48763295    -0.09100
C2420       C  0.26034982  0.24915894  0.47668195     0.29800
F2421       F  0.27378876  0.24707469  0.46454020    -0.19600
H2422       H  0.24759977  0.22438214  0.46907237     0.18100
H2423       H  0.24454071  0.27798091  0.50853588     0.18100
F2424       F  0.21849001  0.25519499  0.51318689    -0.19600
C2425       C  0.41483383  0.14364224  0.13328164    -0.21000
C2426       C  0.42010462  0.14270304  0.15140772    -0.09100
C2427       C  0.40749057  0.13703458  0.16430869     0.29800
C2428       C  0.38985751  0.13288780  0.15919736    -0.21000
C2429       C  0.38433498  0.13451853  0.14118880    -0.09100
C2430       C  0.39708657  0.13972769  0.12818543     0.29800
F2431       F  0.39250155  0.14091381  0.11054953    -0.19600
H2432       H  0.42432378  0.14794862  0.12310097     0.18100
H2433       H  0.38037747  0.12887560  0.16949894     0.18100
F2434       F  0.41220172  0.13539378  0.18188057    -0.19600
C2435       C  0.57375200  0.14247758  0.13271752    -0.21000
C2436       C  0.56850283  0.16059899  0.13255701    -0.09100
C2437       C  0.58103474  0.17378705  0.12730037     0.29800
C2438       C  0.59855765  0.16891540  0.12256522    -0.21000
C2439       C  0.60405828  0.15085282  0.12327428    -0.09100
C2440       C  0.59141065  0.13761540  0.12831029     0.29800
F2441       F  0.59598480  0.11996095  0.12878679    -0.19600
H2442       H  0.56432215  0.13211696  0.13678936     0.18100
H2443       H  0.60796153  0.17938835  0.11875271     0.18100
F2444       F  0.57630271  0.19140573  0.12660818    -0.19600
C2445       C  0.50690533  0.25381698  0.22897758    -0.21000
C2446       C  0.49613203  0.23845574  0.23173510    -0.09100
C2447       C  0.48596665  0.23723005  0.24766512     0.29800
C2448       C  0.48654609  0.25109389  0.26033713    -0.21000
C2449       C  0.49709766  0.26650933  0.25740379    -0.09100
C2450       C  0.50738503  0.26771323  0.24162129     0.29800
F2451       F  0.51833388  0.28204771  0.23863653    -0.19600
H2452       H  0.51491590  0.25522418  0.21692330     0.18100
H2453       H  0.47854551  0.24983842  0.27243000     0.18100
F2454       F  0.47578536  0.22251082  0.25132711    -0.19600
C2455       C  0.12581974  0.42461173  0.13180916    -0.21000
C2456       C  0.14415012  0.42886774  0.13361299    -0.09100
C2457       C  0.15710082  0.41588754  0.12913078     0.29800
C2458       C  0.15178268  0.39884568  0.12329061    -0.21000
C2459       C  0.13347349  0.39424696  0.12221069    -0.09100
C2460       C  0.12047120  0.40734476  0.12638926     0.29800
F2461       F  0.10264081  0.40349033  0.12519506    -0.19600
H2462       H  0.11565262  0.43444287  0.13526638     0.18100
H2463       H  0.16206252  0.38901511  0.12019636     0.18100
F2464       F  0.17494259  0.41968158  0.13044579    -0.19600
C2465       C  0.13901793  0.59127074  0.16339081    -0.21000
C2466       C  0.14025525  0.57877863  0.14927557    -0.09100
C2467       C  0.13545648  0.58425982  0.13179260     0.29800
C2468       C  0.13024626  0.60207660  0.12848642    -0.21000
C2469       C  0.12923487  0.61458315  0.14258255    -0.09100
C2470       C  0.13337830  0.60893886  0.16015341     0.29800
F2471       F  0.13287393  0.62071109  0.17406332    -0.19600
H2472       H  0.14254294  0.58738035  0.17698349     0.18100
H2473       H  0.12708588  0.60615639  0.11485753     0.18100
F2474       F  0.13661291  0.57269518  0.11775918    -0.19600
C2475       C  0.24611067  0.51040336  0.22887646    -0.21000
C2476       C  0.23244065  0.49734629  0.22951772    -0.09100
C2477       C  0.23281394  0.48428676  0.24323859     0.29800
C2478       C  0.24640711  0.48468946  0.25631426    -0.21000
C2479       C  0.26006252  0.49777928  0.25563619    -0.09100
C2480       C  0.25990496  0.51054263  0.24166927     0.29800
F2481       F  0.27266718  0.52360290  0.24075943    -0.19600
H2482       H  0.24615254  0.52053478  0.21838442     0.18100
H2483       H  0.24632077  0.47470297  0.26694667     0.18100
F2484       F  0.21972917  0.47156794  0.24442484    -0.19600
loop_ 
_geom_bond_atom_site_label_1 
_geom_bond_atom_site_label_2 
_geom_bond_distance 
_geom_bond_site_symmetry_2 
_ccdc_geom_bond_type 
N1            N2   1.324       .  A
N1            C5   1.350       .  A
N1           Cu9   2.095       .  S
N2            C3   1.341       .  A
N2           Cu8   2.067       .  S
C3            C4   1.379       .  A
C3            H6   1.083       .  S
C4            C5   1.387       .  A
C4         C2456   1.476       .  S
C5            H7   1.082       .  S
Cu8          N11   2.067       .  S
Cu9          N19   2.094       .  S
Cu10         N12   2.067       .  S
Cu10         N18   2.068       .  S
N11          N12   1.320       .  A
N11          C15   1.346       .  A
N12          C13   1.343       .  A
C13          C14   1.384       .  A
C13          H16   1.081       .  S
C14          C15   1.386       .  A
C14        C2476   1.478       .  S
C15          H17   1.082       .  S
N18          N19   1.323       .  A
N18          C22   1.342       .  A
N19          C20   1.350       .  A
C20          C21   1.390       .  A
C20          H23   1.082       .  S
C21          C22   1.382       .  A
C21        C2466   1.484       .  S
C22          H24   1.083       .  S
N25          N26   1.322       .  A
N25          C29   1.349       .  A
N25         Cu33   2.087       .  S
N26          C27   1.342       .  A
N26         Cu32   2.064       .  S
C27          C28   1.381       .  A
C27          H30   1.082       .  S
C28          C29   1.388       .  A
C28        C2436   1.479       .  S
C29          H31   1.082       .  S
Cu32         N35   2.065       .  S
Cu33         N43   2.087       .  S
Cu34         N36   2.074       .  S
Cu34         N42   2.073       .  S
N35          N36   1.319       .  A
N35          C39   1.343       .  A
N36          C37   1.345       .  A
C37          C38   1.390       .  A
C37          H40   1.081       .  S
C38          C39   1.387       .  A
C38        C2446   1.487       .  S
C39          H41   1.082       .  S
N42          N43   1.323       .  A
N42          C46   1.343       .  A
N43          C44   1.348       .  A
C44          C45   1.387       .  A
C44          H47   1.081       .  S
C45          C46   1.383       .  A
C45        C2426   1.480       .  S
C46          H48   1.081       .  S
N49          N50   1.324       .  A
N49          C53   1.349       .  A
N49         Cu57   2.083       .  S
N50          C51   1.342       .  A
N50         Cu56   2.076       .  S
C51          C52   1.382       .  A
C51          H54   1.082       .  S
C52          C53   1.385       .  A
C52        C2406   1.478       .  S
C53          H55   1.082       .  S
Cu56         N59   2.076       .  S
Cu57         N67   2.083       .  S
Cu58         N60   2.062       .  S
Cu58         N66   2.062       .  S
N59          N60   1.320       .  A
N59          C63   1.346       .  A
N60          C61   1.343       .  A
C61          C62   1.383       .  A
C61          H64   1.081       .  S
C62          C63   1.387       .  A
C62        C2416   1.477       .  S
C63          H65   1.082       .  S
N66          N67   1.322       .  A
N66          C70   1.341       .  A
N67          C68   1.348       .  A
C68          C69   1.387       .  A
C68          H71   1.083       .  S
C69          C70   1.381       .  A
C69        C2396   1.476       .  S
C70          H72   1.082       .  S
N73          N74   1.324       .  A
N73          C77   1.349       .  A
N73         Cu81   2.092       .  S
N74          C75   1.340       .  A
N74         Cu80   2.058       .  S
C75          C76   1.378       .  A
C75          H78   1.083       .  S
C76          C77   1.387       .  A
C76        C2366   1.475       .  S
C77          H79   1.082       .  S
Cu80         N83   2.056       .  S
Cu81         N91   2.092       .  S
Cu82         N84   2.045       .  S
Cu82         N90   2.046       .  S
N83          N84   1.318       .  A
N83          C87   1.343       .  A
N84          C85   1.340       .  A
C85          C86   1.381       .  A
C85          H88   1.082       .  S
C86          C87   1.383       .  A
C86        C2386   1.468       .  S
C87          H89   1.082       .  S
N90          N91   1.322       .  A
N90          C94   1.337       .  A
N91          C92   1.350       .  A
C92          C93   1.389       .  A
C92          H95   1.081       .  S
C93          C94   1.377       .  A
C93        C2376   1.474       .  S
C94          H96   1.083       .  S
N97          N98   1.323       .  A
N97         C101   1.350       .  A
N97        Cu105   2.096       .  S
N98          C99   1.343       .  A
N98        Cu104   2.071       .  S
C99         C100   1.383       .  A
C99         H102   1.081       .  S
C100        C101   1.390       .  A
C100       C2336   1.485       .  S
C101        H103   1.081       .  S
Cu104       N107   2.070       .  S
Cu105       N115   2.096       .  S
Cu106       N108   2.060       .  S
Cu106       N114   2.060       .  S
N107        N108   1.319       .  A
N107        C111   1.344       .  A
N108        C109   1.343       .  A
C109        C110   1.384       .  A
C109        H112   1.081       .  S
C110        C111   1.387       .  A
C110       C2356   1.479       .  S
C111        H113   1.081       .  S
N114        N115   1.322       .  A
N114        C118   1.341       .  A
N115        C116   1.350       .  A
C116        C117   1.390       .  A
C116        H119   1.082       .  S
C117        C118   1.381       .  A
C117       C2349   1.482       .  S
C118        H120   1.082       .  S
N121        N122   1.323       .  A
N121        C125   1.348       .  A
N121       Cu129   2.082       .  S
N122        C123   1.341       .  A
N122       Cu128   2.068       .  S
C123        C124   1.381       .  A
C123        H126   1.082       .  S
C124        C125   1.386       .  A
C124       C2316   1.477       .  S
C125        H127   1.082       .  S
Cu128       N131   2.067       .  S
Cu129       N139   2.082       .  S
Cu130       N132   2.065       .  S
Cu130       N138   2.066       .  S
N131        N132   1.320       .  A
N131        C135   1.344       .  A
N132        C133   1.344       .  A
C133        C134   1.384       .  A
C133        H136   1.082       .  S
C134        C135   1.384       .  A
C134       C2326   1.476       .  S
C135        H137   1.082       .  S
N138        N139   1.323       .  A
N138        C142   1.342       .  A
N139        C140   1.347       .  A
C140        C141   1.385       .  A
C140        H143   1.081       .  S
C141        C142   1.381       .  A
C141       C2306   1.475       .  S
C142        H144   1.083       .  S
N145        N146   1.323       .  A
N145        C149   1.350       .  A
N145       Cu153   2.098       .  S
N146        C147   1.341       .  A
N146       Cu152   2.062       .  S
C147        C148   1.381       .  A
C147        H150   1.080       .  S
C148        C149   1.390       .  A
C148       C2286   1.483       .  S
C149        H151   1.081       .  S
Cu152       N155   2.061       .  S
Cu153       N163   2.098       .  S
Cu154       N156   2.071       .  S
Cu154       N162   2.072       .  S
N155        N156   1.319       .  A
N155        C159   1.344       .  A
N156        C157   1.345       .  A
C157        C158   1.387       .  A
C157        H160   1.081       .  S
C158        C159   1.383       .  A
C158       C2296   1.477       .  S
C159        H161   1.081       .  S
N162        N163   1.324       .  A
N162        C166   1.343       .  A
N163        C164   1.351       .  A
C164        C165   1.388       .  A
C164        H167   1.082       .  S
C165        C166   1.381       .  A
C165       C2279   1.480       .  S
C166        H168   1.082       .  S
N169        N170   1.323       .  A
N169        C173   1.348       .  A
N169       Cu177   2.081       .  S
N170        C171   1.341       .  A
N170       Cu176   2.063       .  S
C171        C172   1.380       .  A
C171        H174   1.081       .  S
C172        C173   1.385       .  A
C172       C2249   1.474       .  S
C173        H175   1.081       .  S
Cu176       N179   2.062       .  S
Cu177       N187   2.081       .  S
Cu178       N180   2.059       .  S
Cu178       N186   2.060       .  S
N179        N180   1.319       .  A
N179        C183   1.343       .  A
N180        C181   1.343       .  A
C181        C182   1.383       .  A
C181        H184   1.081       .  S
C182        C183   1.383       .  A
C182       C2266   1.473       .  S
C183        H185   1.082       .  S
N186        N187   1.323       .  A
N186        C190   1.341       .  A
N187        C188   1.347       .  A
C188        C189   1.385       .  A
C188        H191   1.082       .  S
C189        C190   1.379       .  A
C189       C2256   1.473       .  S
C190        H192   1.082       .  S
O193       Cu201   1.986       .  S
O193        C203   1.276       .  A
O194       Cu201   1.992       .  S
O194        C204   1.276       .  A
O195       Cu201   1.981       .  S
O195        C205   1.275       .  A
O196       Cu201   1.976       .  S
O196        C206   1.275       .  A
O197       Cu202   2.026       .  S
O197        C206   1.280       .  A
O198       Cu202   2.020       .  S
O198        C205   1.280       .  A
O199       Cu202   2.030       .  S
O199        C204   1.280       .  A
O200       Cu202   2.035       .  S
O200        C203   1.281       .  A
Cu201      Cu202   2.369       .  S
C203       C2216   1.486       .  S
C204       C2236   1.480       .  S
C205       C2206   1.481       .  S
C206       C2229   1.475       .  S
O207       Cu215   2.025       .  S
O207        C217   1.280       .  A
O208       Cu215   2.023       .  S
O208        C218   1.279       .  A
O209       Cu215   2.031       .  S
O209        C219   1.280       .  A
O210       Cu215   2.027       .  S
O210        C220   1.280       .  A
O211       Cu216   1.990       .  S
O211        C220   1.276       .  A
O212       Cu216   1.991       .  S
O212        C219   1.276       .  A
O213       Cu216   2.006       .  S
O213        C218   1.278       .  A
O214       Cu216   2.000       .  S
O214        C217   1.277       .  A
Cu215      Cu216   2.369       .  S
C217       C2176   1.481       .  S
C218       C2166   1.483       .  S
C219       C2199   1.483       .  S
C220       C2186   1.482       .  S
O221       Cu229   2.026       .  S
O221        C231   1.280       .  A
O222       Cu229   2.022       .  S
O222        C232   1.279       .  A
O223       Cu229   2.021       .  S
O223        C233   1.279       .  A
O224       Cu229   2.022       .  S
O224        C234   1.280       .  A
O225       Cu230   1.982       .  S
O225        C234   1.275       .  A
O226       Cu230   1.980       .  S
O226        C233   1.275       .  A
O227       Cu230   1.993       .  S
O227        C232   1.277       .  A
O228       Cu230   1.998       .  S
O228        C231   1.277       .  A
Cu229      Cu230   2.369       .  S
C231       C2136   1.484       .  S
C232       C2126   1.478       .  S
C233       C2149   1.479       .  S
C234       C2156   1.479       .  S
O235       Cu243   2.029       .  S
O235        C245   1.281       .  A
O236       Cu243   2.024       .  S
O236        C246   1.279       .  A
O237       Cu243   2.025       .  S
O237        C247   1.280       .  A
O238       Cu243   2.024       .  S
O238        C248   1.280       .  A
O239       Cu244   1.987       .  S
O239        C248   1.276       .  A
O240       Cu244   1.993       .  S
O240        C247   1.276       .  A
O241       Cu244   1.987       .  S
O241        C246   1.276       .  A
O242       Cu244   1.988       .  S
O242        C245   1.275       .  A
Cu243      Cu244   2.369       .  S
C245       C2116   1.484       .  S
C246       C2106   1.478       .  S
C247       C2099   1.484       .  S
C248       C2086   1.483       .  S
O249       Cu257   2.032       .  S
O249        C259   1.280       .  A
O250       Cu257   2.025       .  S
O250        C260   1.280       .  A
O251       Cu257   2.027       .  S
O251        C261   1.280       .  A
O252       Cu257   2.029       .  S
O252        C262   1.280       .  A
O253       Cu258   1.982       .  S
O253        C262   1.276       .  A
O254       Cu258   1.982       .  S
O254        C261   1.275       .  A
O255       Cu258   1.998       .  S
O255        C260   1.277       .  A
O256       Cu258   1.991       .  S
O256        C259   1.277       .  A
Cu257      Cu258   2.370       .  S
C259       C2056   1.481       .  S
C260       C2046   1.482       .  S
C261       C2066   1.476       .  S
C262       C2076   1.482       .  S
O263       Cu271   1.989       .  S
O263        C273   1.276       .  A
O264       Cu271   1.991       .  S
O264        C274   1.277       .  A
O265       Cu271   1.988       .  S
O265        C275   1.277       .  A
O266       Cu271   1.988       .  S
O266        C276   1.277       .  A
O267       Cu272   2.029       .  S
O267        C276   1.280       .  A
O268       Cu272   2.033       .  S
O268        C275   1.281       .  A
O269       Cu272   2.028       .  S
O269        C274   1.280       .  A
O270       Cu272   2.030       .  S
O270        C273   1.280       .  A
Cu271      Cu272   2.368       .  S
C273       C2016   1.480       .  S
C274       C2006   1.484       .  S
C275       C2036   1.487       .  S
C276       C2026   1.483       .  S
N277        N278   1.320       .  A
N277        C281   1.348       .  A
N277       Cu285   2.072       .  S
N278        C279   1.339       .  A
N278       Cu284   2.058       .  S
C279        C280   1.382       .  A
C279        H282   1.081       .  S
C280        C281   1.386       .  A
C280       C2146   1.476       .  S
C281        H283   1.082       .  S
Cu284       N287   2.058       .  S
Cu285       N295   2.074       .  S
Cu286       N288   2.085       .  S
Cu286       N294   2.087       .  S
N287        N288   1.318       .  A
N287        C291   1.340       .  A
N288        C289   1.349       .  A
C289        C290   1.394       .  A
C289        H292   1.081       .  S
C290        C291   1.388       .  A
C290       C2039   1.492       .  S
C291        H293   1.079       .  S
N294        N295   1.325       .  A
N294        C298   1.345       .  A
N295        C296   1.345       .  A
C296        C297   1.383       .  A
C296        H299   1.083       .  S
C297        C298   1.384       .  A
C297       C2419   1.478       .  S
C298        H300   1.082       .  S
N301        N302   1.320       .  A
N301        C305   1.348       .  A
N301       Cu309   2.069       .  S
N302        C303   1.340       .  A
N302       Cu308   2.064       .  S
C303        C304   1.383       .  A
C303        H306   1.081       .  S
C304        C305   1.386       .  A
C304       C2029   1.478       .  S
C305        H307   1.082       .  S
Cu308       N311   2.064       .  S
Cu309       N319   2.070       .  S
Cu310       N312   2.071       .  S
Cu310       N318   2.073       .  S
N311        N312   1.319       .  A
N311        C315   1.340       .  A
N312        C313   1.348       .  A
C313        C314   1.388       .  A
C313        H316   1.081       .  S
C314        C315   1.386       .  A
C314       C2079   1.483       .  S
C315        H317   1.080       .  S
N318        N319   1.324       .  A
N318        C322   1.343       .  A
N319        C320   1.343       .  A
C320        C321   1.382       .  A
C320        H323   1.082       .  S
C321        C322   1.382       .  A
C321       C2269   1.473       .  S
C322        H324   1.082       .  S
N325        N326   1.320       .  A
N325        C329   1.350       .  A
N325       Cu333   2.082       .  S
N326        C327   1.339       .  A
N326       Cu332   2.063       .  S
C327        C328   1.384       .  A
C327        H330   1.082       .  S
C328        C329   1.391       .  A
C328       C2196   1.486       .  S
C329        H331   1.081       .  S
Cu332       N335   2.063       .  S
Cu333       N343   2.084       .  S
Cu334       N336   2.078       .  S
Cu334       N342   2.080       .  S
N335        N336   1.320       .  A
N335        C339   1.340       .  A
N336        C337   1.349       .  A
C337        C338   1.389       .  A
C337        H340   1.082       .  S
C338        C339   1.384       .  A
C338       C2019   1.481       .  S
C339        H341   1.082       .  S
N342        N343   1.325       .  A
N342        C346   1.345       .  A
N343        C344   1.345       .  A
C344        C345   1.384       .  A
C344        H347   1.081       .  S
C345        C346   1.382       .  A
C345       C2479   1.477       .  S
C346        H348   1.082       .  S
N349        N350   1.319       .  A
N349        C353   1.349       .  A
N349       Cu357   2.076       .  S
N350        C351   1.339       .  A
N350       Cu356   2.057       .  S
C351        C352   1.384       .  A
C351        H354   1.080       .  S
C352        C353   1.391       .  A
C352       C2009   1.484       .  S
C353        H355   1.082       .  S
Cu356       N359   2.057       .  S
Cu357       N367   2.078       .  S
Cu358       N360   2.079       .  S
Cu358       N366   2.081       .  S
N359        N360   1.319       .  A
N359        C363   1.340       .  A
N360        C361   1.349       .  A
C361        C362   1.391       .  A
C361        H364   1.083       .  S
C362        C363   1.385       .  A
C362       C2239   1.485       .  S
C363        H365   1.081       .  S
N366        N367   1.325       .  A
N366        C370   1.344       .  A
N367        C368   1.344       .  A
C368        C369   1.383       .  A
C368        H371   1.082       .  S
C369        C370   1.384       .  A
C369       C2359   1.477       .  S
C370        H372   1.082       .  S
N373        N374   1.320       .  A
N373        C377   1.348       .  A
N373       Cu381   2.071       .  S
N374        C375   1.339       .  A
N374       Cu380   2.057       .  S
C375        C376   1.382       .  A
C375        H378   1.082       .  S
C376        C377   1.386       .  A
C376       C2069   1.476       .  S
C377        H379   1.082       .  S
Cu380       N383   2.057       .  S
Cu381       N391   2.073       .  S
Cu382       N384   2.081       .  S
Cu382       N390   2.083       .  S
N383        N384   1.318       .  A
N383        C387   1.339       .  A
N384        C385   1.350       .  A
C385        C386   1.394       .  A
C385        H388   1.069       .  S
C386        C387   1.385       .  A
C386       C2119   1.488       .  S
C387        H389   1.082       .  S
N390        N391   1.325       .  A
N390        C394   1.345       .  A
N391        C392   1.343       .  A
C392        C393   1.382       .  A
C392        H395   1.082       .  S
C393        C394   1.384       .  A
C393       C1996   1.477       .  S
C394        H396   1.082       .  S
N397        N398   1.320       .  A
N397        C401   1.349       .  A
N397       Cu405   2.080       .  S
N398        C399   1.340       .  A
N398       Cu404   2.061       .  S
C399        C400   1.384       .  A
C399        H402   1.082       .  S
C400        C401   1.391       .  A
C400       C2179   1.484       .  S
C401        H403   1.082       .  S
Cu404       N407   2.061       .  S
Cu405       N415   2.082       .  S
Cu406       N408   2.080       .  S
Cu406       N414   2.082       .  S
N407        N408   1.320       .  A
N407        C411   1.339       .  A
N408        C409   1.351       .  A
C409        C410   1.390       .  A
C409        H412   1.082       .  S
C410        C411   1.383       .  A
C410       C2059   1.482       .  S
C411        H413   1.081       .  S
N414        N415   1.325       .  A
N414        C418   1.344       .  A
N415        C416   1.345       .  A
C416        C417   1.385       .  A
C416        H419   1.081       .  S
C417        C418   1.384       .  A
C417       C2329   1.481       .  S
C418        H420   1.081       .  S
N421        N422   1.319       .  A
N421        C425   1.347       .  A
N421       Cu429   2.072       .  S
N422        C423   1.342       .  A
N422       Cu428   2.060       .  S
C423        C424   1.383       .  A
C423        H426   1.081       .  S
C424        C425   1.386       .  A
C424       C2049   1.476       .  S
C425        H427   1.082       .  S
Cu428       N431   2.058       .  S
Cu429       N439   2.073       .  S
Cu430       N432   2.074       .  S
Cu430       N438   2.076       .  S
N431        N432   1.320       .  A
N431        C435   1.337       .  A
N432        C433   1.348       .  A
C433        C434   1.391       .  A
C433        H436   1.081       .  S
C434        C435   1.385       .  A
C434       C2209   1.486       .  S
C435        H437   1.081       .  S
N438        N439   1.324       .  A
N438        C442   1.345       .  A
N439        C440   1.342       .  A
C440        C441   1.382       .  A
C440        H443   1.082       .  S
C441        C442   1.386       .  A
C441       C1986   1.478       .  S
C442        H444   1.082       .  S
N445        N446   1.319       .  A
N445        C449   1.349       .  A
N445       Cu453   2.077       .  S
N446        C447   1.338       .  A
N446       Cu452   2.049       .  S
C447        C448   1.381       .  A
C447        H450   1.082       .  S
C448        C449   1.389       .  A
C448       C2109   1.478       .  S
C449        H451   1.082       .  S
Cu452       N455   2.049       .  S
Cu453       N463   2.080       .  S
Cu454       N456   2.071       .  S
Cu454       N462   2.073       .  S
N455        N456   1.319       .  A
N455        C459   1.338       .  A
N456        C457   1.347       .  A
C457        C458   1.388       .  A
C457        H460   1.081       .  S
C458        C459   1.381       .  A
C458       C2159   1.476       .  S
C459        H461   1.082       .  S
N462        N463   1.325       .  A
N462        C466   1.344       .  A
N463        C464   1.344       .  A
C464        C465   1.384       .  A
C464        H467   1.082       .  S
C465        C466   1.382       .  A
C465       C1976   1.477       .  S
C466        H468   1.082       .  S
N469        N470   1.321       .  A
N469        C473   1.349       .  A
N469       Cu477   2.084       .  S
N470        C471   1.339       .  A
N470       Cu476   2.058       .  S
C471        C472   1.382       .  A
C471        H474   1.082       .  S
C472        C473   1.390       .  A
C472       C2096   1.482       .  S
C473        H475   1.082       .  S
Cu476       N479   2.058       .  S
Cu477       N487   2.085       .  S
Cu478       N480   2.075       .  S
Cu478       N486   2.077       .  S
N479        N480   1.319       .  A
N479        C483   1.340       .  A
N480        C481   1.348       .  A
C481        C482   1.389       .  A
C481        H484   1.082       .  S
C482        C483   1.384       .  A
C482       C2189   1.481       .  S
C483        H485   1.082       .  S
N486        N487   1.324       .  A
N486        C490   1.343       .  A
N487        C488   1.346       .  A
C488        C489   1.386       .  A
C488        H491   1.082       .  S
C489        C490   1.383       .  A
C489       C2299   1.481       .  S
C490        H492   1.082       .  S
N493        N494   1.317       .  A
N493        C497   1.348       .  A
N493       Cu501   2.073       .  S
N494        C495   1.339       .  A
N494       Cu500   2.065       .  S
C495        C496   1.392       .  A
C495        H498   1.082       .  S
C496        C497   1.394       .  A
C496       C2219   1.497       .  S
C497        H499   1.080       .  S
Cu500       N503   2.064       .  S
Cu501       N511   2.075       .  S
Cu502       N504   2.078       .  S
Cu502       N510   2.080       .  S
N503        N504   1.321       .  A
N503        C507   1.339       .  A
N504        C505   1.349       .  A
C505        C506   1.388       .  A
C505        H508   1.082       .  S
C506        C507   1.383       .  A
C506       C2089   1.480       .  S
C507        H509   1.082       .  S
N510        N511   1.324       .  A
N510        C514   1.346       .  A
N511        C512   1.343       .  A
C512        C513   1.382       .  A
C512        H515   1.082       .  S
C513        C514   1.384       .  A
C513       C1966   1.477       .  S
C514        H516   1.082       .  S
N517        N518   1.318       .  A
N517        C521   1.350       .  A
N517       Cu525   2.081       .  S
N518        C519   1.340       .  A
N518       Cu524   2.057       .  S
C519        C520   1.385       .  A
C519        H522   1.081       .  S
C520        C521   1.392       .  A
C520       C2139   1.487       .  S
C521        H523   1.081       .  S
Cu524       N527   2.057       .  S
Cu525       N535   2.083       .  S
Cu526       N528   2.092       .  S
Cu526       N534   2.094       .  S
N527        N528   1.320       .  A
N527        C531   1.338       .  A
N528        C529   1.352       .  A
C529        C530   1.394       .  A
C529        H532   1.082       .  S
C530        C531   1.383       .  A
C530       C2169   1.488       .  S
C531        H533   1.082       .  S
N534        N535   1.326       .  A
N534        C538   1.347       .  A
N535        C536   1.344       .  A
C536        C537   1.382       .  A
C536        H539   1.082       .  S
C537        C538   1.386       .  A
C537       C2449   1.481       .  S
C538        H540   1.082       .  S
N541        N542   1.319       .  A
N541        C545   1.347       .  A
N541       Cu549   2.062       .  S
N542        C543   1.338       .  A
N542       Cu548   2.059       .  S
C543        C544   1.383       .  A
C543        H546   1.082       .  S
C544        C545   1.386       .  A
C544       C2226   1.476       .  S
C545        H547   1.082       .  S
Cu548       N551   2.059       .  S
Cu549       N559   2.064       .  S
Cu550       N552   2.069       .  S
Cu550       N558   2.070       .  S
N551        N552   1.319       .  A
N551        C555   1.339       .  A
N552        C553   1.348       .  A
C553        C554   1.388       .  A
C553        H556   1.082       .  S
C554        C555   1.383       .  A
C554       C2129   1.479       .  S
C555        H557   1.081       .  S
N558        N559   1.325       .  A
N558        C562   1.343       .  A
N559        C560   1.342       .  A
C560        C561   1.379       .  A
C560        H563   1.082       .  S
C561        C562   1.380       .  A
C561       C2389   1.465       .  S
C562        H564   1.081       .  S
N565        N566   1.323       .  A
N565        C569   1.349       .  A
N565       Cu573   2.089       .  S
N566        C567   1.341       .  A
N566       Cu572   2.061       .  S
C567        C568   1.381       .  A
C567        H570   1.082       .  S
C568        C569   1.388       .  A
C568       C1956   1.479       .  S
C569        H571   1.082       .  S
Cu572       N575   2.060       .  S
Cu573       N583   2.090       .  S
Cu574       N576   2.068       .  S
Cu574       N582   2.069       .  S
N575        N576   1.319       .  A
N575        C579   1.343       .  A
N576        C577   1.345       .  A
C577        C578   1.387       .  A
C577        H580   1.082       .  S
C578        C579   1.385       .  A
C578       C1999   1.479       .  S
C579        H581   1.081       .  S
N582        N583   1.323       .  A
N582        C586   1.341       .  A
N583        C584   1.349       .  A
C584        C585   1.389       .  A
C584        H587   1.083       .  S
C585        C586   1.382       .  A
C585       C1946   1.481       .  S
C586        H588   1.082       .  S
N589        N590   1.323       .  A
N589        C593   1.348       .  A
N589       Cu597   2.084       .  S
N590        C591   1.343       .  A
N590       Cu596   2.070       .  S
C591        C592   1.382       .  A
C591        H594   1.082       .  S
C592        C593   1.387       .  A
C592       C1926   1.480       .  S
C593        H595   1.082       .  S
Cu596       N599   2.070       .  S
Cu597       N607   2.084       .  S
Cu598       N600   2.062       .  S
Cu598       N606   2.063       .  S
N599        N600   1.320       .  A
N599        C603   1.344       .  A
N600        C601   1.343       .  A
C601        C602   1.385       .  A
C601        H604   1.081       .  S
C602        C603   1.387       .  A
C602       C1989   1.480       .  S
C603        H605   1.082       .  S
N606        N607   1.322       .  A
N606        C610   1.341       .  A
N607        C608   1.348       .  A
C608        C609   1.388       .  A
C608        H611   1.081       .  S
C609        C610   1.382       .  A
C609       C1936   1.479       .  S
C610        H612   1.081       .  S
N613        N614   1.323       .  A
N613        C617   1.348       .  A
N613       Cu621   2.084       .  S
N614        C615   1.342       .  A
N614       Cu620   2.071       .  S
C615        C616   1.384       .  A
C615        H618   1.083       .  S
C616        C617   1.387       .  A
C616       C1916   1.482       .  S
C617        H619   1.083       .  S
Cu620       N623   2.070       .  S
Cu621       N631   2.084       .  S
Cu622       N624   2.067       .  S
Cu622       N630   2.068       .  S
N623        N624   1.320       .  A
N623        C627   1.344       .  A
N624        C625   1.344       .  A
C625        C626   1.386       .  A
C625        H628   1.081       .  S
C626        C627   1.387       .  A
C626       C1969   1.482       .  S
C627        H629   1.081       .  S
N630        N631   1.323       .  A
N630        C634   1.342       .  A
N631        C632   1.348       .  A
C632        C633   1.386       .  A
C632        H635   1.082       .  S
C633        C634   1.382       .  A
C633       C1906   1.478       .  S
C634        H636   1.083       .  S
N637        N638   1.323       .  A
N637        C641   1.350       .  A
N637       Cu645   2.096       .  S
N638        C639   1.342       .  A
N638       Cu644   2.069       .  S
C639        C640   1.382       .  A
C639        H642   1.081       .  S
C640        C641   1.389       .  A
C640       C1899   1.483       .  S
C641        H643   1.081       .  S
Cu644       N647   2.068       .  S
Cu645       N655   2.096       .  S
Cu646       N648   2.062       .  S
Cu646       N654   2.063       .  S
N647        N648   1.320       .  A
N647        C651   1.345       .  A
N648        C649   1.343       .  A
C649        C650   1.382       .  A
C649        H652   1.082       .  S
C650        C651   1.384       .  A
C650       C1979   1.472       .  S
C651        H653   1.082       .  S
N654        N655   1.323       .  A
N654        C658   1.341       .  A
N655        C656   1.350       .  A
C656        C657   1.388       .  A
C656        H659   1.082       .  S
C657        C658   1.379       .  A
C657       C1886   1.477       .  S
C658        H660   1.082       .  S
O661       Cu669   2.012       .  S
O661        C671   1.279       .  A
O662       Cu669   2.014   1_554  S
O662        C672   1.279       .  A
O663       Cu669   2.020   1_554  S
O663        C673   1.280       .  A
O664       Cu669   2.017       .  S
O664        C674   1.279       .  A
O665       Cu670   2.004       .  S
O665        C674   1.277       .  A
O666       Cu670   2.004   1_554  S
O666        C673   1.277       .  A
O667       Cu670   2.003   1_554  S
O667        C672   1.277       .  A
O668       Cu670   2.002       .  S
O668        C671   1.277       .  A
Cu669      Cu670   2.367       .  S
C671       C1856   1.483       .  S
C672       C1876   1.485       .  S
C673       C1869   1.487       .  S
C674       C1846   1.487       .  S
N675        N676   1.322       .  A
N675        C679   1.346       .  A
N675       Cu683   2.077       .  S
N676        C677   1.343       .  A
N676       Cu682   2.070       .  S
C677        C678   1.385       .  A
C677        H680   1.082       .  S
C678        C679   1.387       .  A
C678       C1859   1.482       .  S
C679        H681   1.082       .  S
Cu682       N685   2.070       .  S
Cu683       N693   2.077       .  S
Cu684       N686   2.071       .  S
Cu684       N692   2.071       .  S
N685        N686   1.320       .  A
N685        C689   1.344       .  A
N686        C687   1.345       .  A
C687        C688   1.388       .  A
C687        H690   1.081       .  S
C688        C689   1.388       .  A
C688       C1836   1.486       .  S
C689        H691   1.080       .  S
N692        N693   1.322       .  A
N692        C696   1.343       .  A
N693        C694   1.346       .  A
C694        C695   1.385       .  A
C694        H697   1.082       .  S
C695        C696   1.383       .  A
C695       C1939   1.478       .  S
C696        H698   1.083       .  S
O699       Cu707   2.010   1_565  S
O699        C709   1.279       .  A
O700       Cu707   2.013       .  S
O700        C710   1.279       .  A
O701       Cu707   2.014       .  S
O701        C711   1.278       .  A
O702       Cu707   2.015   1_565  S
O702        C712   1.279       .  A
O703       Cu708   2.004   1_565  S
O703        C712   1.278       .  A
O704       Cu708   2.008       .  S
O704        C711   1.279       .  A
O705       Cu708   2.000       .  S
O705        C710   1.277       .  A
O706       Cu708   1.998   1_565  S
O706        C709   1.277       .  A
Cu707      Cu708   2.368       .  S
C709       C1806   1.482       .  S
C710       C1829   1.481       .  S
C711       C1816   1.487       .  S
C712       C1839   1.485       .  S
N713        N714   1.321       .  A
N713        C717   1.344       .  A
N713       Cu721   2.068       .  S
N714        C715   1.346       .  A
N714       Cu720   2.080       .  S
C715        C716   1.389       .  A
C715        H718   1.082       .  S
C716        C717   1.386       .  A
C716       C1849   1.486       .  S
C717        H719   1.081       .  S
Cu720       N723   2.081       .  S
Cu721       N731   2.069       .  S
Cu722       N724   2.084       .  S
Cu722       N730   2.083       .  S
N723        N724   1.321       .  A
N723        C727   1.344       .  A
N724        C725   1.347       .  A
C725        C726   1.393       .  A
C725        H728   1.079       .  S
C726        C727   1.391       .  A
C726       C1796   1.498       .  S
C727        H729   1.081       .  S
N730        N731   1.322       .  A
N730        C734   1.347       .  A
N731        C732   1.343       .  A
C732        C733   1.384       .  A
C732        H735   1.082       .  S
C733        C734   1.387       .  A
C733       C1919   1.482       .  S
C734        H736   1.082       .  S
O737       Cu745   2.012   1_455  S
O737        C747   1.279       .  A
O738       Cu745   2.016       .  S
O738        C748   1.279       .  A
O739       Cu745   2.013       .  S
O739        C749   1.278       .  A
O740       Cu745   2.008   1_455  S
O740        C750   1.278       .  A
O741       Cu746   2.013   1_455  S
O741        C750   1.279       .  A
O742       Cu746   2.013       .  S
O742        C749   1.279       .  A
O743       Cu746   2.012       .  S
O743        C748   1.279       .  A
O744       Cu746   2.012   1_455  S
O744        C747   1.278       .  A
Cu745      Cu746   2.367       .  S
C747       C1786   1.486       .  S
C748       C1799   1.486       .  S
C749       C1766   1.488       .  S
C750       C1776   1.486       .  S
N751        N752   1.320       .  A
N751        C755   1.345       .  A
N751       Cu759   2.076       .  S
N752        C753   1.345       .  A
N752       Cu758   2.073       .  S
C753        C754   1.389       .  A
C753        H756   1.081       .  S
C754        C755   1.389       .  A
C754       C1769   1.490       .  S
C755        H757   1.082       .  S
Cu758       N761   2.072       .  S
Cu759       N769   2.076       .  S
Cu760       N762   2.071       .  S
Cu760       N768   2.071       .  S
N761        N762   1.321       .  A
N761        C765   1.343       .  A
N762        C763   1.345       .  A
C763        C764   1.388       .  A
C763        H766   1.080       .  S
C764        C765   1.387       .  A
C764       C1809   1.485       .  S
C765        H767   1.081       .  S
N768        N769   1.322       .  A
N768        C772   1.345       .  A
N769        C770   1.344       .  A
C770        C771   1.385       .  A
C770        H773   1.082       .  S
C771        C772   1.385       .  A
C771       C1959   1.479       .  S
C772        H774   1.082       .  S
O775       Cu783   2.013       .  S
O775        C785   1.279       .  A
O776       Cu783   2.013   1_554  S
O776        C786   1.279       .  A
O777       Cu783   2.002   1_554  S
O777        C787   1.278       .  A
O778       Cu783   2.003       .  S
O778        C788   1.277       .  A
O779       Cu784   2.007       .  S
O779        C788   1.279       .  A
O780       Cu784   2.012   1_554  S
O780        C787   1.278       .  A
O781       Cu784   2.016   1_554  S
O781        C786   1.279       .  A
O782       Cu784   2.011       .  S
O782        C785   1.278       .  A
Cu783      Cu784   2.367       .  S
C785       C1746   1.487       .  S
C786       C1736   1.489       .  S
C787       C1756   1.484       .  S
C788       C1726   1.483       .  S
N789        N790   1.321       .  A
N789        C793   1.345       .  A
N789       Cu797   2.080       .  S
N790        C791   1.342       .  A
N790       Cu796   2.066       .  S
C791        C792   1.386       .  A
C791        H794   1.081       .  S
C792        C793   1.390       .  A
C792       C1729   1.486       .  S
C793        H795   1.081       .  S
Cu796       N799   2.066       .  S
Cu797       N807   2.080       .  S
Cu798       N800   2.074       .  S
Cu798       N806   2.074       .  S
N799        N800   1.319       .  A
N799        C803   1.343       .  A
N800        C801   1.345       .  A
C801        C802   1.390       .  A
C801        H804   1.081       .  S
C802        C803   1.388       .  A
C802       C1779   1.488       .  S
C803        H805   1.082       .  S
N806        N807   1.323       .  A
N806        C810   1.342       .  A
N807        C808   1.348       .  A
C808        C809   1.386       .  A
C808        H811   1.082       .  S
C809        C810   1.383       .  A
C809       C2346   1.480       .  S
C810        H812   1.082       .  S
N813        N814   1.322       .  A
N813        C817   1.347       .  A
N813       Cu821   2.089       .  S
N814        C815   1.345       .  A
N814       Cu820   2.078       .  S
C815        C816   1.387       .  A
C815        H818   1.081       .  S
C816        C817   1.389       .  A
C816       C1719   1.489       .  S
C817        H819   1.082       .  S
Cu820       N823   2.078       .  S
Cu821       N831   2.089       .  S
Cu822       N824   2.077       .  S
Cu822       N830   2.077       .  S
N823        N824   1.320       .  A
N823        C827   1.345       .  A
N824        C825   1.346       .  A
C825        C826   1.390       .  A
C825        H828   1.081       .  S
C826        C827   1.389       .  A
C826       C1739   1.491       .  S
C827        H829   1.082       .  S
N830        N831   1.323       .  A
N830        C834   1.345       .  A
N831        C832   1.348       .  A
C832        C833   1.387       .  A
C832        H835   1.081       .  S
C833        C834   1.383       .  A
C833       C2469   1.481       .  S
C834        H836   1.082       .  S
O837       Cu845   2.007       .  S
O837        C847   1.278       .  A
O838       Cu845   2.006   1_455  S
O838        C848   1.279       .  A
O839       Cu845   2.014   1_455  S
O839        C849   1.279       .  A
O840       Cu845   2.009       .  S
O840        C850   1.278       .  A
O841       Cu846   2.020       .  S
O841        C850   1.279       .  A
O842       Cu846   2.018   1_455  S
O842        C849   1.279       .  A
O843       Cu846   2.012   1_455  S
O843        C848   1.278       .  A
O844       Cu846   2.011       .  S
O844        C847   1.278       .  A
Cu845      Cu846   2.367       .  S
C847       C1686   1.485       .  S
C848       C1706   1.484       .  S
C849       C1716   1.489       .  S
C850       C1696   1.489       .  S
N851        N852   1.320       .  A
N851        C855   1.344       .  A
N851       Cu859   2.077       .  S
N852        C853   1.345       .  A
N852       Cu858   2.070       .  S
C853        C854   1.389       .  A
C853        H856   1.080       .  S
C854        C855   1.390       .  A
C854       C1689   1.489       .  S
C855        H857   1.081       .  S
Cu858       N861   2.071       .  S
Cu859       N869   2.077       .  S
Cu860       N862   2.077       .  S
Cu860       N868   2.077       .  S
N861        N862   1.321       .  A
N861        C865   1.343       .  A
N862        C863   1.346       .  A
C863        C864   1.389       .  A
C863        H866   1.081       .  S
C864        C865   1.387       .  A
C864       C1879   1.488       .  S
C865        H867   1.081       .  S
N868        N869   1.322       .  A
N868        C872   1.346       .  A
N869        C870   1.345       .  A
C870        C871   1.385       .  A
C870        H873   1.083       .  S
C871        C872   1.386       .  A
C871       C2289   1.481       .  S
C872        H874   1.082       .  S
N875        N876   1.321       .  A
N875        C879   1.346       .  A
N875       Cu883   2.078       .  S
N876        C877   1.345       .  A
N876       Cu882   2.072       .  S
C877        C878   1.386       .  A
C877        H880   1.082       .  S
C878        C879   1.388       .  A
C878       C1676   1.485       .  S
C879        H881   1.081       .  S
Cu882       N885   2.073       .  S
Cu883       N893   2.078       .  S
Cu884       N886   2.082       .  S
Cu884       N892   2.082       .  S
N885        N886   1.321       .  A
N885        C889   1.343       .  A
N886        C887   1.348       .  A
C887        C888   1.390       .  A
C887        H890   1.081       .  S
C888        C889   1.386       .  A
C888       C1699   1.488       .  S
C889        H891   1.081       .  S
N892        N893   1.323       .  A
N892        C896   1.347       .  A
N893        C894   1.345       .  A
C894        C895   1.384       .  A
C894        H897   1.082       .  S
C895        C896   1.385       .  A
C895       C1949   1.479       .  S
C896        H898   1.082       .  S
O899       Cu907   2.010       .  S
O899        C909   1.279       .  A
O900       Cu907   2.012   1_565  S
O900        C910   1.278       .  A
O901       Cu907   2.006   1_565  S
O901        C911   1.278       .  A
O902       Cu907   2.008       .  S
O902        C912   1.278       .  A
O903       Cu908   2.016       .  S
O903        C912   1.279       .  A
O904       Cu908   2.010   1_565  S
O904        C911   1.278       .  A
O905       Cu908   2.017   1_565  S
O905        C910   1.279       .  A
O906       Cu908   2.017       .  S
O906        C909   1.279       .  A
Cu907      Cu908   2.367       .  S
C909       C1656   1.488       .  S
C910       C1679   1.487       .  S
C911       C1649   1.485       .  S
C912       C1666   1.488       .  S
N913        N914   1.322       .  A
N913        C917   1.346       .  A
N913       Cu921   2.083       .  S
N914        C915   1.343       .  A
N914       Cu920   2.070       .  S
C915        C916   1.386       .  A
C915        H918   1.081       .  S
C916        C917   1.389       .  A
C916       C1646   1.486       .  S
C917        H919   1.082       .  S
Cu920       N923   2.070       .  S
Cu921       N931   2.083       .  S
Cu922       N924   2.071       .  S
Cu922       N930   2.071       .  S
N923        N924   1.319       .  A
N923        C927   1.344       .  A
N924        C925   1.345       .  A
C925        C926   1.388       .  A
C925        H928   1.081       .  S
C926        C927   1.388       .  A
C926       C1866   1.486       .  S
C927        H929   1.082       .  S
N930        N931   1.322       .  A
N930        C934   1.342       .  A
N931        C932   1.348       .  A
C932        C933   1.387       .  A
C932        H935   1.082       .  S
C933        C934   1.383       .  A
C933       C2319   1.479       .  S
C934        H936   1.081       .  S
N937        N938   1.321       .  A
N937        C941   1.347       .  A
N937       Cu945   2.082       .  S
N938        C939   1.344       .  A
N938       Cu944   2.077       .  S
C939        C940   1.389       .  A
C939        H942   1.081       .  S
C940        C941   1.391       .  A
C940       C1639   1.493       .  S
C941        H943   1.080       .  S
Cu944       N947   2.077       .  S
Cu945       N955   2.082       .  S
Cu946       N948   2.080       .  S
Cu946       N954   2.080       .  S
N947        N948   1.321       .  A
N947        C951   1.344       .  A
N948        C949   1.347       .  A
C949        C950   1.389       .  A
C949        H952   1.082       .  S
C950        C951   1.388       .  A
C950       C1659   1.489       .  S
C951        H953   1.081       .  S
N954        N955   1.323       .  A
N954        C958   1.346       .  A
N955        C956   1.346       .  A
C956        C957   1.387       .  A
C956        H959   1.082       .  S
C957        C958   1.387       .  A
C957       C2439   1.485       .  S
C958        H960   1.081       .  S
O961       Cu969   1.994   1_554  S
O961        C971   1.276       .  A
O962       Cu969   1.993       .  S
O962        C972   1.276       .  A
O963       Cu969   2.007       .  S
O963        C973   1.278       .  A
O964       Cu969   2.010   1_554  S
O964        C974   1.278       .  A
O965       Cu970   2.021   1_554  S
O965        C974   1.280       .  A
O966       Cu970   2.019       .  S
O966        C973   1.279       .  A
O967       Cu970   2.024       .  S
O967        C972   1.280       .  A
O968       Cu970   2.027   1_554  S
O968        C971   1.281       .  A
Cu969      Cu970   2.366       .  S
C971       C1629   1.487       .  S
C972       C1606   1.485       .  S
C973       C1616   1.488       .  S
C974       C1636   1.490       .  S
N975        N976   1.321       .  A
N975        C979   1.344       .  A
N975       Cu983   2.067       .  S
N976        C977   1.344       .  A
N976       Cu982   2.073       .  S
C977        C978   1.387       .  A
C977        H980   1.082       .  S
C978        C979   1.385       .  A
C978       C1826   1.481       .  S
C979        H981   1.082       .  S
Cu982       N985   2.073       .  S
Cu983       N993   2.067       .  S
Cu984       N986   2.068       .  S
Cu984       N992   2.068       .  S
N985        N986   1.321       .  A
N985        C989   1.343       .  A
N986        C987   1.345       .  A
C987        C988   1.386       .  A
C987        H990   1.081       .  S
C988        C989   1.386       .  A
C988       C1609   1.481       .  S
C989        H991   1.082       .  S
N992        N993   1.321       .  A
N992        C996   1.344       .  A
N993        C994   1.343       .  A
C994        C995   1.384       .  A
C994        H997   1.081       .  S
C995        C996   1.384       .  A
C995       C2379   1.476       .  S
C996        H998   1.082       .  S
N999       N1000   1.321       .  A
N999       C1003   1.345       .  A
N999      Cu1007   2.075       .  S
N1000      C1001   1.345       .  A
N1000     Cu1006   2.079       .  S
C1001      C1002   1.389       .  A
C1001      H1004   1.081       .  S
C1002      C1003   1.388       .  A
C1002      C1596   1.488       .  S
C1003      H1005   1.081       .  S
Cu1006     N1009   2.079       .  S
Cu1007     N1017   2.075       .  S
Cu1008     N1010   2.078       .  S
Cu1008     N1016   2.078       .  S
N1009      N1010   1.322       .  A
N1009      C1013   1.344       .  A
N1010      C1011   1.347       .  A
C1011      C1012   1.388       .  A
C1011      H1014   1.081       .  S
C1012      C1013   1.387       .  A
C1012      C1619   1.487       .  S
C1013      H1015   1.082       .  S
N1016      N1017   1.322       .  A
N1016      C1020   1.346       .  A
N1017      C1018   1.344       .  A
C1018      C1019   1.385       .  A
C1018      H1021   1.082       .  S
C1019      C1020   1.385       .  A
C1019      C1909   1.478       .  S
C1020      H1022   1.083       .  S
N1023      N1024   1.320       .  A
N1023      C1027   1.346       .  A
N1023     Cu1031   2.082       .  S
N1024      C1025   1.343       .  A
N1024     Cu1030   2.063       .  S
C1025      C1026   1.386       .  A
C1025      H1028   1.081       .  S
C1026      C1027   1.391       .  A
C1026      C1749   1.488       .  S
C1027      H1029   1.082       .  S
Cu1030     N1033   2.063       .  S
Cu1031     N1041   2.082       .  S
Cu1032     N1034   2.080       .  S
Cu1032     N1040   2.081       .  S
N1033      N1034   1.321       .  A
N1033      C1037   1.342       .  A
N1034      C1035   1.346       .  A
C1035      C1036   1.389       .  A
C1035      H1038   1.081       .  S
C1036      C1037   1.385       .  A
C1036      C1586   1.484       .  S
C1037      H1039   1.080       .  S
N1040      N1041   1.323       .  A
N1040      C1044   1.346       .  A
N1041      C1042   1.345       .  A
C1042      C1043   1.386       .  A
C1042      H1045   1.081       .  S
C1043      C1044   1.386       .  A
C1043      C1929   1.484       .  S
C1044      H1046   1.082       .  S
O1047     Cu1055   2.005       .  S
O1047      C1057   1.277       .  A
O1048     Cu1055   2.006   1_655  S
O1048      C1058   1.278       .  A
O1049     Cu1055   2.013   1_655  S
O1049      C1059   1.279       .  A
O1050     Cu1055   2.010       .  S
O1050      C1060   1.278       .  A
O1051     Cu1056   2.012       .  S
O1051      C1060   1.279       .  A
O1052     Cu1056   2.017   1_655  S
O1052      C1059   1.279       .  A
O1053     Cu1056   2.018   1_655  S
O1053      C1058   1.280       .  A
O1054     Cu1056   2.019       .  S
O1054      C1057   1.280       .  A
Cu1055    Cu1056   2.367       .  S
C1057      C1566   1.487       .  S
C1058      C1599   1.488       .  S
C1059      C1556   1.488       .  S
C1060      C1576   1.487       .  S
N1061      N1062   1.322       .  A
N1061      C1065   1.348       .  A
N1061     Cu1069   2.090       .  S
N1062      C1063   1.342       .  A
N1062     Cu1068   2.070       .  S
C1063      C1064   1.386       .  A
C1063      H1066   1.081       .  S
C1064      C1065   1.391       .  A
C1064      C1819   1.489       .  S
C1065      H1067   1.082       .  S
Cu1068     N1071   2.070       .  S
Cu1069     N1079   2.090       .  S
Cu1070     N1072   2.076       .  S
Cu1070     N1078   2.076       .  S
N1071      N1072   1.320       .  A
N1071      C1075   1.344       .  A
N1072      C1073   1.346       .  A
C1073      C1074   1.389       .  A
C1073      H1076   1.081       .  S
C1074      C1075   1.388       .  A
C1074      C1559   1.488       .  S
C1075      H1077   1.082       .  S
N1078      N1079   1.323       .  A
N1078      C1082   1.344       .  A
N1079      C1080   1.349       .  A
C1080      C1081   1.388       .  A
C1080      H1083   1.083       .  S
C1081      C1082   1.384       .  A
C1081      C1896   1.482       .  S
C1082      H1084   1.082       .  S
N1085      N1086   1.323       .  A
N1085      C1089   1.348       .  A
N1085     Cu1093   2.088       .  S
N1086      C1087   1.342       .  A
N1086     Cu1092   2.072       .  S
C1087      C1088   1.385       .  A
C1087      H1090   1.081       .  S
C1088      C1089   1.389       .  A
C1088      C1546   1.486       .  S
C1089      H1091   1.082       .  S
Cu1092     N1095   2.071       .  S
Cu1093     N1103   2.087       .  S
Cu1094     N1096   2.067       .  S
Cu1094     N1102   2.068       .  S
N1095      N1096   1.319       .  A
N1095      C1099   1.345       .  A
N1096      C1097   1.344       .  A
C1097      C1098   1.389       .  A
C1097      H1100   1.080       .  S
C1098      C1099   1.390       .  A
C1098      C1569   1.488       .  S
C1099      H1101   1.081       .  S
N1102      N1103   1.322       .  A
N1102      C1106   1.342       .  A
N1103      C1104   1.349       .  A
C1104      C1105   1.388       .  A
C1104      H1107   1.082       .  S
C1105      C1106   1.383       .  A
C1105      C2409   1.482       .  S
C1106      H1108   1.081       .  S
O1109     Cu1117   2.014       .  S
O1109      C1119   1.279       .  A
O1110     Cu1117   2.018   1_545  S
O1110      C1120   1.279       .  A
O1111     Cu1117   2.017   1_545  S
O1111      C1121   1.279       .  A
O1112     Cu1117   2.016       .  S
O1112      C1122   1.279       .  A
O1113     Cu1118   2.000       .  S
O1113      C1122   1.277       .  A
O1114     Cu1118   2.000   1_545  S
O1114      C1121   1.277       .  A
O1115     Cu1118   2.002   1_545  S
O1115      C1120   1.278       .  A
O1116     Cu1118   2.000       .  S
O1116      C1119   1.278       .  A
Cu1117    Cu1118   2.367       .  S
C1119      C1589   1.484       .  S
C1120      C1549   1.486       .  S
C1121      C1536   1.485       .  S
C1122      C1529   1.485       .  S
N1123      N1124   1.322       .  A
N1123      C1127   1.347       .  A
N1123     Cu1131   2.078       .  S
N1124      C1125   1.342       .  A
N1124     Cu1130   2.072       .  S
C1125      C1126   1.384       .  A
C1125      H1128   1.082       .  S
C1126      C1127   1.387       .  A
C1126      C1526   1.482       .  S
C1127      H1129   1.082       .  S
Cu1130     N1133   2.071       .  S
Cu1131     N1141   2.077       .  S
Cu1132     N1134   2.067       .  S
Cu1132     N1140   2.067       .  S
N1133      N1134   1.320       .  A
N1133      C1137   1.346       .  A
N1134      C1135   1.343       .  A
C1135      C1136   1.387       .  A
C1135      H1138   1.081       .  S
C1136      C1137   1.388       .  A
C1136      C1789   1.485       .  S
C1137      H1139   1.082       .  S
N1140      N1141   1.323       .  A
N1140      C1144   1.343       .  A
N1141      C1142   1.346       .  A
C1142      C1143   1.384       .  A
C1142      H1145   1.082       .  S
C1143      C1144   1.381       .  A
C1143      C2259   1.473       .  S
C1144      H1146   1.083       .  S
N1147      N1148   1.320       .  A
N1147      C1151   1.344       .  A
N1147     Cu1155   2.068       .  S
N1148      C1149   1.345       .  A
N1148     Cu1154   2.070       .  S
C1149      C1150   1.388       .  A
C1149      H1152   1.081       .  S
C1150      C1151   1.387       .  A
C1150      C1516   1.484       .  S
C1151      H1153   1.081       .  S
Cu1154     N1157   2.071       .  S
Cu1155     N1165   2.068       .  S
Cu1156     N1158   2.076       .  S
Cu1156     N1164   2.076       .  S
N1157      N1158   1.322       .  A
N1157      C1161   1.341       .  A
N1158      C1159   1.347       .  A
C1159      C1160   1.388       .  A
C1159      H1162   1.082       .  S
C1160      C1161   1.386       .  A
C1160      C1759   1.484       .  S
C1161      H1163   1.081       .  S
N1164      N1165   1.322       .  A
N1164      C1168   1.346       .  A
N1165      C1166   1.342       .  A
C1166      C1167   1.384       .  A
C1166      H1169   1.082       .  S
C1167      C1168   1.386       .  A
C1167      C2309   1.479       .  S
C1168      H1170   1.082       .  S
O1171     Cu1179   2.006   1_545  S
O1171      C1181   1.278       .  A
O1172     Cu1179   2.006       .  S
O1172      C1182   1.278       .  A
O1173     Cu1179   2.020       .  S
O1173      C1183   1.280       .  A
O1174     Cu1179   2.020   1_545  S
O1174      C1184   1.279       .  A
O1175     Cu1180   1.997   1_545  S
O1175      C1184   1.277       .  A
O1176     Cu1180   1.998       .  S
O1176      C1183   1.276       .  A
O1177     Cu1180   2.013       .  S
O1177      C1182   1.279       .  A
O1178     Cu1180   2.012   1_545  S
O1178      C1181   1.278       .  A
Cu1179    Cu1180   2.367       .  S
C1181      C1506   1.486       .  S
C1182      C1486   1.486       .  S
C1183      C1519   1.485       .  S
C1184      C1499   1.484       .  S
N1185      N1186   1.319       .  A
N1185      C1189   1.345       .  A
N1185     Cu1193   2.072       .  S
N1186      C1187   1.343       .  A
N1186     Cu1192   2.067       .  S
C1187      C1188   1.389       .  A
C1187      H1190   1.081       .  S
C1188      C1189   1.391       .  A
C1188      C1489   1.490       .  S
C1189      H1191   1.080       .  S
Cu1192     N1195   2.067       .  S
Cu1193     N1203   2.073       .  S
Cu1194     N1196   2.078       .  S
Cu1194     N1202   2.078       .  S
N1195      N1196   1.322       .  A
N1195      C1199   1.342       .  A
N1196      C1197   1.347       .  A
C1197      C1198   1.387       .  A
C1197      H1200   1.082       .  S
C1198      C1199   1.384       .  A
C1198      C1709   1.481       .  S
C1199      H1201   1.082       .  S
N1202      N1203   1.323       .  A
N1202      C1206   1.346       .  A
N1203      C1204   1.343       .  A
C1204      C1205   1.383       .  A
C1204      H1207   1.083       .  S
C1205      C1206   1.384       .  A
C1205      C2246   1.476       .  S
C1206      H1208   1.083       .  S
N1209      N1210   1.320       .  A
N1209      C1213   1.344       .  A
N1209     Cu1217   2.072       .  S
N1210      C1211   1.345       .  A
N1210     Cu1216   2.074       .  S
C1211      C1212   1.389       .  A
C1211      H1214   1.081       .  S
C1212      C1213   1.389       .  A
C1212      C1509   1.488       .  S
C1213      H1215   1.080       .  S
Cu1216     N1219   2.075       .  S
Cu1217     N1227   2.072       .  S
Cu1218     N1220   2.076       .  S
Cu1218     N1226   2.076       .  S
N1219      N1220   1.322       .  A
N1219      C1223   1.343       .  A
N1220      C1221   1.346       .  A
C1221      C1222   1.388       .  A
C1221      H1224   1.082       .  S
C1222      C1223   1.387       .  A
C1222      C1479   1.486       .  S
C1223      H1225   1.081       .  S
N1226      N1227   1.322       .  A
N1226      C1230   1.346       .  A
N1227      C1228   1.344       .  A
C1228      C1229   1.385       .  A
C1228      H1231   1.082       .  S
C1229      C1230   1.387       .  A
C1229      C2429   1.483       .  S
C1230      H1232   1.082       .  S
N1233      N1234   1.321       .  A
N1233      C1237   1.345       .  A
N1233     Cu1241   2.073       .  S
N1234      C1235   1.345       .  A
N1234     Cu1240   2.078       .  S
C1235      C1236   1.387       .  A
C1235      H1238   1.081       .  S
C1236      C1237   1.386       .  A
C1236      C1466   1.483       .  S
C1237      H1239   1.081       .  S
Cu1240     N1243   2.078       .  S
Cu1241     N1251   2.073       .  S
Cu1242     N1244   2.072       .  S
Cu1242     N1250   2.071       .  S
N1243      N1244   1.322       .  A
N1243      C1247   1.344       .  A
N1244      C1245   1.345       .  A
C1245      C1246   1.386       .  A
C1245      H1248   1.081       .  S
C1246      C1247   1.387       .  A
C1246      C1539   1.484       .  S
C1247      H1249   1.082       .  S
N1250      N1251   1.322       .  A
N1250      C1254   1.346       .  A
N1251      C1252   1.343       .  A
C1252      C1253   1.384       .  A
C1252      H1255   1.081       .  S
C1253      C1254   1.385       .  A
C1253      C2369   1.477       .  S
C1254      H1256   1.082       .  S
O1257     Cu1265   2.014       .  S
O1257      C1267   1.278       .  A
O1258     Cu1265   2.015   1_554  S
O1258      C1268   1.278       .  A
O1259     Cu1265   2.018   1_554  S
O1259      C1269   1.279       .  A
O1260     Cu1265   2.014       .  S
O1260      C1270   1.280       .  A
O1261     Cu1266   2.002       .  S
O1261      C1270   1.277       .  A
O1262     Cu1266   2.001   1_554  S
O1262      C1269   1.278       .  A
O1263     Cu1266   2.009   1_554  S
O1263      C1268   1.279       .  A
O1264     Cu1266   2.010       .  S
O1264      C1267   1.279       .  A
Cu1265    Cu1266   2.367       .  S
C1267      C1469   1.486       .  S
C1268      C1456   1.487       .  S
C1269      C1476   1.486       .  S
C1270      C1446   1.485       .  S
N1271      N1272   1.320       .  A
N1271      C1275   1.344       .  A
N1271     Cu1279   2.073       .  S
N1272      C1273   1.345       .  A
N1272     Cu1278   2.069       .  S
C1273      C1274   1.388       .  A
C1273      H1276   1.082       .  S
C1274      C1275   1.389       .  A
C1274      C1449   1.488       .  S
C1275      H1277   1.080       .  S
Cu1278     N1281   2.069       .  S
Cu1279     N1289   2.074       .  S
Cu1280     N1282   2.091       .  S
Cu1280     N1288   2.091       .  S
N1281      N1282   1.322       .  A
N1281      C1285   1.343       .  A
N1282      C1283   1.347       .  A
C1283      C1284   1.392       .  A
C1283      H1286   1.080       .  S
C1284      C1285   1.386       .  A
C1284      C1579   1.491       .  S
C1285      H1287   1.081       .  S
N1288      N1289   1.323       .  A
N1288      C1292   1.348       .  A
N1289      C1290   1.345       .  A
C1290      C1291   1.384       .  A
C1290      H1293   1.082       .  S
C1291      C1292   1.387       .  A
C1291      C2339   1.482       .  S
C1292      H1294   1.082       .  S
N1295      N1296   1.320       .  A
N1295      C1299   1.346       .  A
N1295     Cu1303   2.078       .  S
N1296      C1297   1.343       .  A
N1296     Cu1302   2.066       .  S
C1297      C1298   1.387       .  A
C1297      H1300   1.080       .  S
C1298      C1299   1.390       .  A
C1298      C1436   1.488       .  S
C1299      H1301   1.082       .  S
Cu1302     N1305   2.066       .  S
Cu1303     N1313   2.079       .  S
Cu1304     N1306   2.080       .  S
Cu1304     N1312   2.081       .  S
N1305      N1306   1.320       .  A
N1305      C1309   1.343       .  A
N1306      C1307   1.347       .  A
C1307      C1308   1.389       .  A
C1307      H1310   1.081       .  S
C1308      C1309   1.385       .  A
C1308      C1459   1.485       .  S
C1309      H1311   1.081       .  S
N1312      N1313   1.323       .  A
N1312      C1316   1.345       .  A
N1313      C1314   1.346       .  A
C1314      C1315   1.385       .  A
C1314      H1317   1.082       .  S
C1315      C1316   1.385       .  A
C1315      C2459   1.481       .  S
C1316      H1318   1.082       .  S
N1319      N1320   1.321       .  A
N1319      C1323   1.345       .  A
N1319     Cu1327   2.069       .  S
N1320      C1321   1.344       .  A
N1320     Cu1326   2.076       .  S
C1321      C1322   1.387       .  A
C1321      H1324   1.082       .  S
C1322      C1323   1.385       .  A
C1322      C1426   1.482       .  S
C1323      H1325   1.083       .  S
Cu1326     N1329   2.076       .  S
Cu1327     N1337   2.069       .  S
Cu1328     N1330   2.073       .  S
Cu1328     N1336   2.073       .  S
N1329      N1330   1.321       .  A
N1329      C1333   1.344       .  A
N1330      C1331   1.345       .  A
C1331      C1332   1.388       .  A
C1331      H1334   1.081       .  S
C1332      C1333   1.389       .  A
C1332      C1496   1.489       .  S
C1333      H1335   1.080       .  S
N1336      N1337   1.322       .  A
N1336      C1340   1.346       .  A
N1337      C1338   1.343       .  A
C1338      C1339   1.384       .  A
C1338      H1341   1.081       .  S
C1339      C1340   1.385       .  A
C1339      C2399   1.478       .  S
C1340      H1342   1.081       .  S
N1343      N1344   1.322       .  A
N1343      C1347   1.345       .  A
N1343     Cu1351   2.072       .  S
N1344      C1345   1.346       .  A
N1344     Cu1350   2.086       .  S
C1345      C1346   1.389       .  A
C1345      H1348   1.082       .  S
C1346      C1347   1.386       .  A
C1346      C1626   1.486       .  S
C1347      H1349   1.081       .  S
Cu1350     N1353   2.086       .  S
Cu1351     N1361   2.072       .  S
Cu1352     N1354   2.081       .  S
Cu1352     N1360   2.081       .  S
N1353      N1354   1.322       .  A
N1353      C1357   1.346       .  A
N1354      C1355   1.346       .  A
C1355      C1356   1.389       .  A
C1355      H1358   1.080       .  S
C1356      C1357   1.390       .  A
C1356      C1416   1.492       .  S
C1357      H1359   1.081       .  S
N1360      N1361   1.322       .  A
N1360      C1364   1.345       .  A
N1361      C1362   1.346       .  A
C1362      C1363   1.385       .  A
C1362      H1365   1.082       .  S
C1363      C1364   1.387       .  A
C1363      C2276   1.482       .  S
C1364      H1366   1.082       .  S
O1367     Cu1375   2.001       .  S
O1367      C1377   1.278       .  A
O1368     Cu1375   2.004   1_455  S
O1368      C1378   1.278       .  A
O1369     Cu1375   1.998   1_455  S
O1369      C1379   1.277       .  A
O1370     Cu1375   2.002       .  S
O1370      C1380   1.277       .  A
O1371     Cu1376   2.028       .  S
O1371      C1380   1.281       .  A
O1372     Cu1376   2.027   1_455  S
O1372      C1379   1.280       .  A
O1373     Cu1376   2.014   1_455  S
O1373      C1378   1.278       .  A
O1374     Cu1376   2.016       .  S
O1374      C1377   1.278       .  A
Cu1375    Cu1376   2.367       .  S
C1377      C1406   1.485       .  S
C1378      C1439   1.485       .  S
C1379      C1429   1.486       .  S
C1380      C1419   1.490       .  S
N1381      N1382   1.321       .  A
N1381      C1385   1.344       .  A
N1381     Cu1389   2.074       .  S
N1382      C1383   1.346       .  A
N1382     Cu1388   2.077       .  S
C1383      C1384   1.389       .  A
C1383      H1386   1.082       .  S
C1384      C1385   1.387       .  A
C1384      C1669   1.486       .  S
C1385      H1387   1.081       .  S
Cu1388     N1391   2.077       .  S
Cu1389     N1399   2.074       .  S
Cu1390     N1392   2.078       .  S
Cu1390     N1398   2.078       .  S
N1391      N1392   1.322       .  A
N1391      C1395   1.343       .  A
N1392      C1393   1.346       .  A
C1393      C1394   1.387       .  A
C1393      H1396   1.082       .  S
C1394      C1395   1.387       .  A
C1394      C1409   1.486       .  S
C1395      H1397   1.080       .  S
N1398      N1399   1.322       .  A
N1398      C1402   1.345       .  A
N1399      C1400   1.346       .  A
C1400      C1401   1.385       .  A
C1400      H1403   1.082       .  S
C1401      C1402   1.386       .  A
C1401      C1889   1.482       .  S
C1402      H1404   1.082       .  S
C1405      C1406   1.405       .  A
C1405      C1410   1.395       .  A
C1405      H1412   1.083       .  S
C1406      C1407   1.410       .  A
C1407      C1408   1.401       .  A
C1407      F1414   1.357       .  S
C1408      C1409   1.407       .  A
C1408      H1413   1.082       .  S
C1409      C1410   1.408       .  A
C1410      F1411   1.356       .  S
C1415      C1416   1.405       .  A
C1415      C1420   1.399       .  A
C1415      H1422   1.082       .  S
C1416      C1417   1.411       .  A
C1417      C1418   1.402       .  A
C1417      F1424   1.356       .  S
C1418      C1419   1.406       .  A
C1418      H1423   1.083       .  S
C1419      C1420   1.411       .  A
C1420      F1421   1.357       .  S
C1425      C1426   1.406       .  A
C1425      C1430   1.402       .  A
C1425      H1432   1.083       .  S
C1426      C1427   1.405       .  A
C1427      C1428   1.396       .  A
C1427      F1434   1.357       .  S
C1428      C1429   1.407       .  A
C1428      H1433   1.083       .  S
C1429      C1430   1.409       .  A
C1430      F1431   1.357       .  S
C1435      C1436   1.407       .  A
C1435      C1440   1.400       .  A
C1435      H1442   1.082       .  S
C1436      C1437   1.410       .  A
C1437      C1438   1.397       .  A
C1437      F1444   1.356       .  S
C1438      C1439   1.405       .  A
C1438      H1443   1.083       .  S
C1439      C1440   1.409       .  A
C1440      F1441   1.357       .  S
C1445      C1446   1.405       .  A
C1445      C1450   1.397       .  A
C1445      H1452   1.083       .  S
C1446      C1447   1.410       .  A
C1447      C1448   1.399       .  A
C1447      F1454   1.358       .  S
C1448      C1449   1.406       .  A
C1448      H1453   1.082       .  S
C1449      C1450   1.409       .  A
C1450      F1451   1.356       .  S
C1455      C1456   1.406       .  A
C1455      C1460   1.397       .  A
C1455      H1462   1.083       .  S
C1456      C1457   1.411       .  A
C1457      C1458   1.401       .  A
C1457      F1464   1.357       .  S
C1458      C1459   1.405       .  A
C1458      H1463   1.083       .  S
C1459      C1460   1.408       .  A
C1460      F1461   1.357       .  S
C1465      C1466   1.405       .  A
C1465      C1470   1.400       .  A
C1465      H1472   1.083       .  S
C1466      C1467   1.407       .  A
C1467      C1468   1.398       .  A
C1467      F1474   1.357       .  S
C1468      C1469   1.406       .  A
C1468      H1473   1.083       .  S
C1469      C1470   1.410       .  A
C1470      F1471   1.357       .  S
C1475      C1476   1.406       .  A
C1475      C1480   1.396       .  A
C1475      H1482   1.083       .  S
C1476      C1477   1.409       .  A
C1477      C1478   1.401       .  A
C1477      F1484   1.357       .  S
C1478      C1479   1.407       .  A
C1478      H1483   1.082       .  S
C1479      C1480   1.408       .  A
C1480      F1481   1.356       .  S
C1485      C1486   1.406       .  A
C1485      C1490   1.399       .  A
C1485      H1492   1.083       .  S
C1486      C1487   1.408       .  A
C1487      C1488   1.397       .  A
C1487      F1494   1.357       .  S
C1488      C1489   1.407       .  A
C1488      H1493   1.081       .  S
C1489      C1490   1.410       .  A
C1490      F1491   1.356       .  S
C1495      C1496   1.408       .  A
C1495      C1500   1.400       .  A
C1495      H1502   1.082       .  S
C1496      C1497   1.409       .  A
C1497      C1498   1.396       .  A
C1497      F1504   1.356       .  S
C1498      C1499   1.405       .  A
C1498      H1503   1.083       .  S
C1499      C1500   1.408       .  A
C1500      F1501   1.357       .  S
C1505      C1506   1.406       .  A
C1505      C1510   1.398       .  A
C1505      H1512   1.083       .  S
C1506      C1507   1.409       .  A
C1507      C1508   1.399       .  A
C1507      F1514   1.357       .  S
C1508      C1509   1.407       .  A
C1508      H1513   1.081       .  S
C1509      C1510   1.409       .  A
C1510      F1511   1.356       .  S
C1515      C1516   1.404       .  A
C1515      C1520   1.397       .  A
C1515      H1522   1.083       .  S
C1516      C1517   1.409       .  A
C1517      C1518   1.399       .  A
C1517      F1524   1.356       .  S
C1518      C1519   1.405       .  A
C1518      H1523   1.083       .  S
C1519      C1520   1.411       .  A
C1520      F1521   1.358       .  S
C1525      C1526   1.404       .  A
C1525      C1530   1.395       .  A
C1525      H1532   1.083       .  S
C1526      C1527   1.407       .  A
C1527      C1528   1.400       .  A
C1527      F1534   1.357       .  S
C1528      C1529   1.407       .  A
C1528      H1533   1.083       .  S
C1529      C1530   1.410       .  A
C1530      F1531   1.357       .  S
C1535      C1536   1.406       .  A
C1535      C1540   1.400       .  A
C1535      H1542   1.083       .  S
C1536      C1537   1.410       .  A
C1537      C1538   1.396       .  A
C1537      F1544   1.357       .  S
C1538      C1539   1.404       .  A
C1538      H1543   1.082       .  S
C1539      C1540   1.409       .  A
C1540      F1541   1.357       .  S
C1545      C1546   1.406       .  A
C1545      C1550   1.402       .  A
C1545      H1552   1.082       .  S
C1546      C1547   1.409       .  A
C1547      C1548   1.396       .  A
C1547      F1554   1.356       .  S
C1548      C1549   1.405       .  A
C1548      H1553   1.083       .  S
C1549      C1550   1.410       .  A
C1550      F1551   1.357       .  S
C1555      C1556   1.407       .  A
C1555      C1560   1.402       .  A
C1555      H1562   1.083       .  S
C1556      C1557   1.409       .  A
C1557      C1558   1.398       .  A
C1557      F1564   1.357       .  S
C1558      C1559   1.405       .  A
C1558      H1563   1.082       .  S
C1559      C1560   1.409       .  A
C1560      F1561   1.357       .  S
C1565      C1566   1.405       .  A
C1565      C1570   1.399       .  A
C1565      H1572   1.083       .  S
C1566      C1567   1.410       .  A
C1567      C1568   1.399       .  A
C1567      F1574   1.357       .  S
C1568      C1569   1.406       .  A
C1568      H1573   1.082       .  S
C1569      C1570   1.410       .  A
C1570      F1571   1.356       .  S
C1575      C1576   1.406       .  A
C1575      C1580   1.400       .  A
C1575      H1582   1.083       .  S
C1576      C1577   1.409       .  A
C1577      C1578   1.399       .  A
C1577      F1584   1.358       .  S
C1578      C1579   1.408       .  A
C1578      H1583   1.082       .  S
C1579      C1580   1.409       .  A
C1580      F1581   1.356       .  S
C1585      C1586   1.406       .  A
C1585      C1590   1.399       .  A
C1585      H1592   1.082       .  S
C1586      C1587   1.409       .  A
C1587      C1588   1.396       .  A
C1587      F1594   1.356       .  S
C1588      C1589   1.405       .  A
C1588      H1593   1.083       .  S
C1589      C1590   1.409       .  A
C1590      F1591   1.357       .  S
C1595      C1596   1.405       .  A
C1595      C1600   1.398       .  A
C1595      H1602   1.082       .  S
C1596      C1597   1.409       .  A
C1597      C1598   1.401       .  A
C1597      F1604   1.356       .  S
C1598      C1599   1.406       .  A
C1598      H1603   1.083       .  S
C1599      C1600   1.410       .  A
C1600      F1601   1.357       .  S
C1605      C1606   1.406       .  A
C1605      C1610   1.400       .  A
C1605      H1612   1.083       .  S
C1606      C1607   1.411       .  A
C1607      C1608   1.395       .  A
C1607      F1614   1.357       .  S
C1608      C1609   1.402       .  A
C1608      H1613   1.083       .  S
C1609      C1610   1.408       .  A
C1610      F1611   1.357       .  S
C1615      C1616   1.407       .  A
C1615      C1620   1.402       .  A
C1615      H1622   1.083       .  S
C1616      C1617   1.410       .  A
C1617      C1618   1.397       .  A
C1617      F1624   1.357       .  S
C1618      C1619   1.404       .  A
C1618      H1623   1.083       .  S
C1619      C1620   1.409       .  A
C1620      F1621   1.357       .  S
C1625      C1626   1.403       .  A
C1625      C1630   1.396       .  A
C1625      H1632   1.083       .  S
C1626      C1627   1.410       .  A
C1627      C1628   1.402       .  A
C1627      F1634   1.357       .  S
C1628      C1629   1.406       .  A
C1628      H1633   1.083       .  S
C1629      C1630   1.411       .  A
C1630      F1631   1.357       .  S
C1635      C1636   1.407       .  A
C1635      C1640   1.402       .  A
C1635      H1642   1.083       .  S
C1636      C1637   1.409       .  A
C1637      C1638   1.399       .  A
C1637      F1644   1.357       .  S
C1638      C1639   1.407       .  A
C1638      H1643   1.082       .  S
C1639      C1640   1.411       .  A
C1640      F1641   1.356       .  S
C1645      C1646   1.405       .  A
C1645      C1650   1.399       .  A
C1645      H1652   1.082       .  S
C1646      C1647   1.410       .  A
C1647      C1648   1.397       .  A
C1647      F1654   1.356       .  S
C1648      C1649   1.405       .  A
C1648      H1653   1.083       .  S
C1649      C1650   1.409       .  A
C1650      F1651   1.357       .  S
C1655      C1656   1.406       .  A
C1655      C1660   1.398       .  A
C1655      H1662   1.083       .  S
C1656      C1657   1.410       .  A
C1657      C1658   1.401       .  A
C1657      F1664   1.357       .  S
C1658      C1659   1.406       .  A
C1658      H1663   1.082       .  S
C1659      C1660   1.409       .  A
C1660      F1661   1.356       .  S
C1665      C1666   1.406       .  A
C1665      C1670   1.399       .  A
C1665      H1672   1.083       .  S
C1666      C1667   1.411       .  A
C1667      C1668   1.399       .  A
C1667      F1674   1.357       .  S
C1668      C1669   1.405       .  A
C1668      H1673   1.082       .  S
C1669      C1670   1.409       .  A
C1670      F1671   1.357       .  S
C1675      C1676   1.405       .  A
C1675      C1680   1.399       .  A
C1675      H1682   1.083       .  S
C1676      C1677   1.408       .  A
C1677      C1678   1.400       .  A
C1677      F1684   1.357       .  S
C1678      C1679   1.407       .  A
C1678      H1683   1.083       .  S
C1679      C1680   1.410       .  A
C1680      F1681   1.357       .  S
C1685      C1686   1.406       .  A
C1685      C1690   1.399       .  A
C1685      H1692   1.083       .  S
C1686      C1687   1.408       .  A
C1687      C1688   1.397       .  A
C1687      F1694   1.357       .  S
C1688      C1689   1.406       .  A
C1688      H1693   1.082       .  S
C1689      C1690   1.411       .  A
C1690      F1691   1.356       .  S
C1695      C1696   1.408       .  A
C1695      C1700   1.403       .  A
C1695      H1702   1.083       .  S
C1696      C1697   1.410       .  A
C1697      C1698   1.397       .  A
C1697      F1704   1.357       .  S
C1698      C1699   1.405       .  A
C1698      H1703   1.082       .  S
C1699      C1700   1.409       .  A
C1700      F1701   1.357       .  S
C1705      C1706   1.405       .  A
C1705      C1710   1.395       .  A
C1705      H1712   1.083       .  S
C1706      C1707   1.411       .  A
C1707      C1708   1.401       .  A
C1707      F1714   1.357       .  S
C1708      C1709   1.405       .  A
C1708      H1713   1.083       .  S
C1709      C1710   1.406       .  A
C1710      F1711   1.357       .  S
C1715      C1716   1.407       .  A
C1715      C1720   1.401       .  A
C1715      H1722   1.083       .  S
C1716      C1717   1.409       .  A
C1717      C1718   1.401       .  A
C1717      F1724   1.357       .  S
C1718      C1719   1.405       .  A
C1718      H1723   1.083       .  S
C1719      C1720   1.409       .  A
C1720      F1721   1.357       .  S
C1725      C1726   1.405       .  A
C1725      C1730   1.397       .  A
C1725      H1732   1.083       .  S
C1726      C1727   1.409       .  A
C1727      C1728   1.397       .  A
C1727      F1734   1.358       .  S
C1728      C1729   1.407       .  A
C1728      H1733   1.082       .  S
C1729      C1730   1.409       .  A
C1730      F1731   1.356       .  S
C1735      C1736   1.407       .  A
C1735      C1740   1.401       .  A
C1735      H1742   1.083       .  S
C1736      C1737   1.409       .  A
C1737      C1738   1.399       .  A
C1737      F1744   1.357       .  S
C1738      C1739   1.406       .  A
C1738      H1743   1.082       .  S
C1739      C1740   1.410       .  A
C1740      F1741   1.356       .  S
C1745      C1746   1.406       .  A
C1745      C1750   1.399       .  A
C1745      H1752   1.083       .  S
C1746      C1747   1.410       .  A
C1747      C1748   1.399       .  A
C1747      F1754   1.357       .  S
C1748      C1749   1.405       .  A
C1748      H1753   1.083       .  S
C1749      C1750   1.410       .  A
C1750      F1751   1.356       .  S
C1755      C1756   1.405       .  A
C1755      C1760   1.394       .  A
C1755      H1762   1.083       .  S
C1756      C1757   1.410       .  A
C1757      C1758   1.401       .  A
C1757      F1764   1.357       .  S
C1758      C1759   1.406       .  A
C1758      H1763   1.082       .  S
C1759      C1760   1.408       .  A
C1760      F1761   1.356       .  S
C1765      C1766   1.406       .  A
C1765      C1770   1.399       .  A
C1765      H1772   1.083       .  S
C1766      C1767   1.410       .  A
C1767      C1768   1.399       .  A
C1767      F1774   1.357       .  S
C1768      C1769   1.406       .  A
C1768      H1773   1.082       .  S
C1769      C1770   1.410       .  A
C1770      F1771   1.356       .  S
C1775      C1776   1.406       .  A
C1775      C1780   1.399       .  A
C1775      H1782   1.083       .  S
C1776      C1777   1.409       .  A
C1777      C1778   1.398       .  A
C1777      F1784   1.357       .  S
C1778      C1779   1.406       .  A
C1778      H1783   1.082       .  S
C1779      C1780   1.409       .  A
C1780      F1781   1.356       .  S
C1785      C1786   1.405       .  A
C1785      C1790   1.397       .  A
C1785      H1792   1.083       .  S
C1786      C1787   1.410       .  A
C1787      C1788   1.400       .  A
C1787      F1794   1.357       .  S
C1788      C1789   1.406       .  A
C1788      H1793   1.083       .  S
C1789      C1790   1.408       .  A
C1790      F1791   1.357       .  S
C1795      C1796   1.409       .  A
C1795      C1800   1.398       .  A
C1795      H1802   1.081       .  S
C1796      C1797   1.413       .  A
C1797      C1798   1.402       .  A
C1797      F1804   1.355       .  S
C1798      C1799   1.405       .  A
C1798      H1803   1.084       .  S
C1799      C1800   1.406       .  A
C1800      F1801   1.358       .  S
C1805      C1806   1.405       .  A
C1805      C1810   1.399       .  A
C1805      H1812   1.083       .  S
C1806      C1807   1.408       .  A
C1807      C1808   1.395       .  A
C1807      F1814   1.358       .  S
C1808      C1809   1.405       .  A
C1808      H1813   1.082       .  S
C1809      C1810   1.409       .  A
C1810      F1811   1.356       .  S
C1815      C1816   1.405       .  A
C1815      C1820   1.397       .  A
C1815      H1822   1.083       .  S
C1816      C1817   1.410       .  A
C1817      C1818   1.401       .  A
C1817      F1824   1.357       .  S
C1818      C1819   1.406       .  A
C1818      H1823   1.082       .  S
C1819      C1820   1.410       .  A
C1820      F1821   1.356       .  S
C1825      C1826   1.405       .  A
C1825      C1830   1.399       .  A
C1825      H1832   1.083       .  S
C1826      C1827   1.407       .  A
C1827      C1828   1.396       .  A
C1827      F1834   1.357       .  S
C1828      C1829   1.406       .  A
C1828      H1833   1.084       .  S
C1829      C1830   1.408       .  A
C1830      F1831   1.357       .  S
C1835      C1836   1.406       .  A
C1835      C1840   1.400       .  A
C1835      H1842   1.082       .  S
C1836      C1837   1.409       .  A
C1837      C1838   1.397       .  A
C1837      F1844   1.356       .  S
C1838      C1839   1.406       .  A
C1838      H1843   1.083       .  S
C1839      C1840   1.409       .  A
C1840      F1841   1.357       .  S
C1845      C1846   1.406       .  A
C1845      C1850   1.400       .  A
C1845      H1852   1.083       .  S
C1846      C1847   1.410       .  A
C1847      C1848   1.398       .  A
C1847      F1854   1.357       .  S
C1848      C1849   1.404       .  A
C1848      H1853   1.082       .  S
C1849      C1850   1.409       .  A
C1850      F1851   1.357       .  S
C1855      C1856   1.406       .  A
C1855      C1860   1.399       .  A
C1855      H1862   1.083       .  S
C1856      C1857   1.409       .  A
C1857      C1858   1.397       .  A
C1857      F1864   1.357       .  S
C1858      C1859   1.404       .  A
C1858      H1863   1.083       .  S
C1859      C1860   1.407       .  A
C1860      F1861   1.357       .  S
C1865      C1866   1.405       .  A
C1865      C1870   1.398       .  A
C1865      H1872   1.082       .  S
C1866      C1867   1.409       .  A
C1867      C1868   1.400       .  A
C1867      F1874   1.356       .  S
C1868      C1869   1.406       .  A
C1868      H1873   1.083       .  S
C1869      C1870   1.410       .  A
C1870      F1871   1.357       .  S
C1875      C1876   1.406       .  A
C1875      C1880   1.400       .  A
C1875      H1882   1.083       .  S
C1876      C1877   1.409       .  A
C1877      C1878   1.396       .  A
C1877      F1884   1.357       .  S
C1878      C1879   1.406       .  A
C1878      H1883   1.082       .  S
C1879      C1880   1.410       .  A
C1880      F1881   1.356       .  S
C1885      C1886   1.403       .  A
C1885      C1890   1.402       .  A
C1885      H1892   1.083       .  S
C1886      C1887   1.406       .  A
C1887      C1888   1.397       .  A
C1887      F1894   1.357       .  S
C1888      C1889   1.404       .  A
C1888      H1893   1.083       .  S
C1889      C1890   1.409       .  A
C1890      F1891   1.357       .  S
C1895      C1896   1.403       .  A
C1895      C1900   1.397       .  A
C1895      H1902   1.084       .  S
C1896      C1897   1.407       .  A
C1897      C1898   1.403       .  A
C1897      F1904   1.357       .  S
C1898      C1899   1.405       .  A
C1898      H1903   1.084       .  S
C1899      C1900   1.408       .  A
C1900      F1901   1.357       .  S
C1905      C1906   1.404       .  A
C1905      C1910   1.401       .  A
C1905      H1912   1.084       .  S
C1906      C1907   1.406       .  A
C1907      C1908   1.396       .  A
C1907      F1914   1.357       .  S
C1908      C1909   1.403       .  A
C1908      H1913   1.084       .  S
C1909      C1910   1.407       .  A
C1910      F1911   1.357       .  S
C1915      C1916   1.405       .  A
C1915      C1920   1.401       .  A
C1915      H1922   1.083       .  S
C1916      C1917   1.407       .  A
C1917      C1918   1.396       .  A
C1917      F1924   1.357       .  S
C1918      C1919   1.404       .  A
C1918      H1923   1.083       .  S
C1919      C1920   1.407       .  A
C1920      F1921   1.357       .  S
C1925      C1926   1.403       .  A
C1925      C1930   1.398       .  A
C1925      H1932   1.084       .  S
C1926      C1927   1.406       .  A
C1927      C1928   1.401       .  A
C1927      F1934   1.357       .  S
C1928      C1929   1.406       .  A
C1928      H1933   1.083       .  S
C1929      C1930   1.408       .  A
C1930      F1931   1.357       .  S
C1935      C1936   1.405       .  A
C1935      C1940   1.400       .  A
C1935      H1942   1.083       .  S
C1936      C1937   1.407       .  A
C1937      C1938   1.396       .  A
C1937      F1944   1.357       .  S
C1938      C1939   1.403       .  A
C1938      H1943   1.083       .  S
C1939      C1940   1.407       .  A
C1940      F1941   1.357       .  S
C1945      C1946   1.405       .  A
C1945      C1950   1.401       .  A
C1945      H1952   1.083       .  S
C1946      C1947   1.408       .  A
C1947      C1948   1.397       .  A
C1947      F1954   1.357       .  S
C1948      C1949   1.403       .  A
C1948      H1953   1.083       .  S
C1949      C1950   1.407       .  A
C1950      F1951   1.357       .  S
C1955      C1956   1.404       .  A
C1955      C1960   1.401       .  A
C1955      H1962   1.083       .  S
C1956      C1957   1.407       .  A
C1957      C1958   1.396       .  A
C1957      F1964   1.357       .  S
C1958      C1959   1.403       .  A
C1958      H1963   1.083       .  S
C1959      C1960   1.408       .  A
C1960      F1961   1.357       .  S
C1965      C1966   1.403       .  A
C1965      C1970   1.396       .  A
C1965      H1972   1.083       .  S
C1966      C1967   1.405       .  A
C1967      C1968   1.399       .  A
C1967      F1974   1.357       .  S
C1968      C1969   1.406       .  A
C1968      H1973   1.082       .  S
C1969      C1970   1.408       .  A
C1970      F1971   1.357       .  S
C1975      C1976   1.405       .  A
C1975      C1980   1.398       .  A
C1975      H1982   1.083       .  S
C1976      C1977   1.407       .  A
C1977      C1978   1.396       .  A
C1977      F1984   1.357       .  S
C1978      C1979   1.402       .  A
C1978      H1983   1.084       .  S
C1979      C1980   1.405       .  A
C1980      F1981   1.357       .  S
C1985      C1986   1.404       .  A
C1985      C1990   1.396       .  A
C1985      H1992   1.083       .  S
C1986      C1987   1.407       .  A
C1987      C1988   1.397       .  A
C1987      F1994   1.357       .  S
C1988      C1989   1.405       .  A
C1988      H1993   1.083       .  S
C1989      C1990   1.407       .  A
C1990      F1991   1.357       .  S
C1995      C1996   1.403       .  A
C1995      C2000   1.397       .  A
C1995      H2002   1.083       .  S
C1996      C1997   1.407       .  A
C1997      C1998   1.398       .  A
C1997      F2004   1.357       .  S
C1998      C1999   1.404       .  A
C1998      H2003   1.083       .  S
C1999      C2000   1.408       .  A
C2000      F2001   1.357       .  S
C2005      C2006   1.404       .  A
C2005      C2010   1.393       .  A
C2005      H2012   1.083       .  S
C2006      C2007   1.409       .  A
C2007      C2008   1.404       .  A
C2007      F2014   1.357       .  S
C2008      C2009   1.407       .  A
C2008      H2013   1.082       .  S
C2009      C2010   1.408       .  A
C2010      F2011   1.357       .  S
C2015      C2016   1.404       .  A
C2015      C2020   1.393       .  A
C2015      H2022   1.084       .  S
C2016      C2017   1.408       .  A
C2017      C2018   1.404       .  A
C2017      F2024   1.357       .  S
C2018      C2019   1.406       .  A
C2018      H2023   1.083       .  S
C2019      C2020   1.406       .  A
C2020      F2021   1.357       .  S
C2025      C2026   1.405       .  A
C2025      C2030   1.391       .  A
C2025      H2032   1.083       .  S
C2026      C2027   1.410       .  A
C2027      C2028   1.404       .  A
C2027      F2034   1.357       .  S
C2028      C2029   1.405       .  A
C2028      H2033   1.083       .  S
C2029      C2030   1.404       .  A
C2030      F2031   1.357       .  S
C2035      C2036   1.404       .  A
C2035      C2040   1.393       .  A
C2035      H2042   1.083       .  S
C2036      C2037   1.409       .  A
C2037      C2038   1.405       .  A
C2037      F2044   1.357       .  S
C2038      C2039   1.409       .  A
C2038      H2043   1.082       .  S
C2039      C2040   1.411       .  A
C2040      F2041   1.355       .  S
C2045      C2046   1.406       .  A
C2045      C2050   1.396       .  A
C2045      H2052   1.083       .  S
C2046      C2047   1.409       .  A
C2047      C2048   1.402       .  A
C2047      F2054   1.357       .  S
C2048      C2049   1.403       .  A
C2048      H2053   1.083       .  S
C2049      C2050   1.404       .  A
C2050      F2051   1.358       .  S
C2055      C2056   1.403       .  A
C2055      C2060   1.392       .  A
C2055      H2062   1.083       .  S
C2056      C2057   1.409       .  A
C2057      C2058   1.406       .  A
C2057      F2064   1.357       .  S
C2058      C2059   1.407       .  A
C2058      H2063   1.083       .  S
C2059      C2060   1.406       .  A
C2060      F2061   1.357       .  S
C2065      C2066   1.404       .  A
C2065      C2070   1.391       .  A
C2065      H2072   1.084       .  S
C2066      C2067   1.407       .  A
C2067      C2068   1.403       .  A
C2067      F2074   1.357       .  S
C2068      C2069   1.405       .  A
C2068      H2073   1.083       .  S
C2069      C2070   1.405       .  A
C2070      F2071   1.358       .  S
C2075      C2076   1.404       .  A
C2075      C2080   1.390       .  A
C2075      H2082   1.083       .  S
C2076      C2077   1.409       .  A
C2077      C2078   1.404       .  A
C2077      F2084   1.357       .  S
C2078      C2079   1.407       .  A
C2078      H2083   1.083       .  S
C2079      C2080   1.407       .  A
C2080      F2081   1.356       .  S
C2085      C2086   1.408       .  A
C2085      C2090   1.405       .  A
C2085      H2092   1.083       .  S
C2086      C2087   1.409       .  A
C2087      C2088   1.390       .  A
C2087      F2094   1.358       .  S
C2088      C2089   1.402       .  A
C2088      H2093   1.083       .  S
C2089      C2090   1.408       .  A
C2090      F2091   1.357       .  S
C2095      C2096   1.404       .  A
C2095      C2100   1.393       .  A
C2095      H2102   1.083       .  S
C2096      C2097   1.407       .  A
C2097      C2098   1.403       .  A
C2097      F2104   1.357       .  S
C2098      C2099   1.408       .  A
C2098      H2103   1.083       .  S
C2099      C2100   1.408       .  A
C2100      F2101   1.358       .  S
C2105      C2106   1.404       .  A
C2105      C2110   1.392       .  A
C2105      H2112   1.084       .  S
C2106      C2107   1.407       .  A
C2107      C2108   1.402       .  A
C2107      F2114   1.357       .  S
C2108      C2109   1.405       .  A
C2108      H2113   1.083       .  S
C2109      C2110   1.407       .  A
C2110      F2111   1.358       .  S
C2115      C2116   1.406       .  A
C2115      C2120   1.404       .  A
C2115      H2122   1.085       .  S
C2116      C2117   1.408       .  A
C2117      C2118   1.392       .  A
C2117      F2124   1.358       .  S
C2118      C2119   1.405       .  A
C2118      H2123   1.083       .  S
C2119      C2120   1.410       .  A
C2120      F2121   1.356       .  S
C2125      C2126   1.403       .  A
C2125      C2130   1.392       .  A
C2125      H2132   1.083       .  S
C2126      C2127   1.408       .  A
C2127      C2128   1.403       .  A
C2127      F2134   1.357       .  S
C2128      C2129   1.406       .  A
C2128      H2133   1.083       .  S
C2129      C2130   1.406       .  A
C2130      F2131   1.357       .  S
C2135      C2136   1.404       .  A
C2135      C2140   1.395       .  A
C2135      H2142   1.084       .  S
C2136      C2137   1.409       .  A
C2137      C2138   1.404       .  A
C2137      F2144   1.357       .  S
C2138      C2139   1.407       .  A
C2138      H2143   1.083       .  S
C2139      C2140   1.409       .  A
C2140      F2141   1.357       .  S
C2145      C2146   1.404       .  A
C2145      C2150   1.402       .  A
C2145      H2152   1.083       .  S
C2146      C2147   1.405       .  A
C2147      C2148   1.390       .  A
C2147      F2154   1.357       .  S
C2148      C2149   1.405       .  A
C2148      H2153   1.083       .  S
C2149      C2150   1.409       .  A
C2150      F2151   1.357       .  S
C2155      C2156   1.406       .  A
C2155      C2160   1.401       .  A
C2155      H2162   1.083       .  S
C2156      C2157   1.409       .  A
C2157      C2158   1.391       .  A
C2157      F2164   1.358       .  S
C2158      C2159   1.402       .  A
C2158      H2163   1.083       .  S
C2159      C2160   1.406       .  A
C2160      F2161   1.357       .  S
C2165      C2166   1.407       .  A
C2165      C2170   1.405       .  A
C2165      H2172   1.083       .  S
C2166      C2167   1.405       .  A
C2167      C2168   1.395       .  A
C2167      F2174   1.358       .  S
C2168      C2169   1.406       .  A
C2168      H2173   1.082       .  S
C2169      C2170   1.409       .  A
C2170      F2171   1.356       .  S
C2175      C2176   1.406       .  A
C2175      C2180   1.403       .  A
C2175      H2182   1.083       .  S
C2176      C2177   1.407       .  A
C2177      C2178   1.395       .  A
C2177      F2184   1.358       .  S
C2178      C2179   1.405       .  A
C2178      H2183   1.083       .  S
C2179      C2180   1.409       .  A
C2180      F2181   1.357       .  S
C2185      C2186   1.406       .  A
C2185      C2190   1.403       .  A
C2185      H2192   1.083       .  S
C2186      C2187   1.409       .  A
C2187      C2188   1.393       .  A
C2187      F2194   1.358       .  S
C2188      C2189   1.403       .  A
C2188      H2193   1.083       .  S
C2189      C2190   1.408       .  A
C2190      F2191   1.357       .  S
C2195      C2196   1.404       .  A
C2195      C2200   1.393       .  A
C2195      H2202   1.082       .  S
C2196      C2197   1.410       .  A
C2197      C2198   1.405       .  A
C2197      F2204   1.356       .  S
C2198      C2199   1.407       .  A
C2198      H2203   1.083       .  S
C2199      C2200   1.408       .  A
C2200      F2201   1.358       .  S
C2205      C2206   1.406       .  A
C2205      C2210   1.402       .  A
C2205      H2212   1.084       .  S
C2206      C2207   1.408       .  A
C2207      C2208   1.389       .  A
C2207      F2214   1.358       .  S
C2208      C2209   1.405       .  A
C2208      H2213   1.081       .  S
C2209      C2210   1.410       .  A
C2210      F2211   1.356       .  S
C2215      C2216   1.406       .  A
C2215      C2220   1.407       .  A
C2215      H2222   1.084       .  S
C2216      C2217   1.407       .  A
C2217      C2218   1.390       .  A
C2217      F2224   1.358       .  S
C2218      C2219   1.406       .  A
C2218      H2223   1.081       .  S
C2219      C2220   1.415       .  A
C2220      F2221   1.355       .  S
C2225      C2226   1.401       .  A
C2225      C2230   1.389       .  A
C2225      H2232   1.083       .  S
C2226      C2227   1.409       .  A
C2227      C2228   1.403       .  A
C2227      F2234   1.357       .  S
C2228      C2229   1.405       .  A
C2228      H2233   1.083       .  S
C2229      C2230   1.406       .  A
C2230      F2231   1.358       .  S
C2235      C2236   1.403       .  A
C2235      C2240   1.395       .  A
C2235      H2242   1.084       .  S
C2236      C2237   1.407       .  A
C2237      C2238   1.403       .  A
C2237      F2244   1.357       .  S
C2238      C2239   1.407       .  A
C2238      H2243   1.083       .  S
C2239      C2240   1.409       .  A
C2240      F2241   1.357       .  S
C2245      C2246   1.403       .  A
C2245      C2250   1.394       .  A
C2245      H2252   1.084       .  S
C2246      C2247   1.407       .  A
C2247      C2248   1.401       .  A
C2247      F2254   1.357       .  S
C2248      C2249   1.404       .  A
C2248      H2253   1.084       .  S
C2249      C2250   1.405       .  A
C2250      F2251   1.357       .  S
C2255      C2256   1.403       .  A
C2255      C2260   1.400       .  A
C2255      H2262   1.083       .  S
C2256      C2257   1.406       .  A
C2257      C2258   1.395       .  A
C2257      F2264   1.358       .  S
C2258      C2259   1.402       .  A
C2258      H2263   1.083       .  S
C2259      C2260   1.406       .  A
C2260      F2261   1.357       .  S
C2265      C2266   1.403       .  A
C2265      C2270   1.396       .  A
C2265      H2272   1.083       .  S
C2266      C2267   1.406       .  A
C2267      C2268   1.396       .  A
C2267      F2274   1.357       .  S
C2268      C2269   1.404       .  A
C2268      H2273   1.082       .  S
C2269      C2270   1.406       .  A
C2270      F2271   1.357       .  S
C2275      C2276   1.404       .  A
C2275      C2280   1.397       .  A
C2275      H2282   1.083       .  S
C2276      C2277   1.409       .  A
C2277      C2278   1.403       .  A
C2277      F2284   1.357       .  S
C2278      C2279   1.404       .  A
C2278      H2283   1.083       .  S
C2279      C2280   1.406       .  A
C2280      F2281   1.357       .  S
C2285      C2286   1.404       .  A
C2285      C2290   1.402       .  A
C2285      H2292   1.083       .  S
C2286      C2287   1.409       .  A
C2287      C2288   1.397       .  A
C2287      F2294   1.357       .  S
C2288      C2289   1.403       .  A
C2288      H2293   1.083       .  S
C2289      C2290   1.408       .  A
C2290      F2291   1.357       .  S
C2295      C2296   1.404       .  A
C2295      C2300   1.399       .  A
C2295      H2302   1.083       .  S
C2296      C2297   1.405       .  A
C2297      C2298   1.397       .  A
C2297      F2304   1.357       .  S
C2298      C2299   1.405       .  A
C2298      H2303   1.082       .  S
C2299      C2300   1.407       .  A
C2300      F2301   1.357       .  S
C2305      C2306   1.403       .  A
C2305      C2310   1.400       .  A
C2305      H2312   1.084       .  S
C2306      C2307   1.405       .  A
C2307      C2308   1.395       .  A
C2307      F2314   1.357       .  S
C2308      C2309   1.404       .  A
C2308      H2313   1.084       .  S
C2309      C2310   1.408       .  A
C2310      F2311   1.357       .  S
C2315      C2316   1.402       .  A
C2315      C2320   1.395       .  A
C2315      H2322   1.083       .  S
C2316      C2317   1.407       .  A
C2317      C2318   1.403       .  A
C2317      F2324   1.357       .  S
C2318      C2319   1.406       .  A
C2318      H2323   1.083       .  S
C2319      C2320   1.407       .  A
C2320      F2321   1.357       .  S
C2325      C2326   1.403       .  A
C2325      C2330   1.398       .  A
C2325      H2332   1.084       .  S
C2326      C2327   1.405       .  A
C2327      C2328   1.397       .  A
C2327      F2334   1.357       .  S
C2328      C2329   1.405       .  A
C2328      H2333   1.083       .  S
C2329      C2330   1.408       .  A
C2330      F2331   1.357       .  S
C2335      C2336   1.405       .  A
C2335      C2340   1.399       .  A
C2335      H2342   1.083       .  S
C2336      C2337   1.408       .  A
C2337      C2338   1.403       .  A
C2337      F2344   1.357       .  S
C2338      C2339   1.405       .  A
C2338      H2343   1.083       .  S
C2339      C2340   1.407       .  A
C2340      F2341   1.357       .  S
C2345      C2346   1.405       .  A
C2345      C2350   1.403       .  A
C2345      H2352   1.083       .  S
C2346      C2347   1.406       .  A
C2347      C2348   1.395       .  A
C2347      F2354   1.357       .  S
C2348      C2349   1.404       .  A
C2348      H2353   1.083       .  S
C2349      C2350   1.408       .  A
C2350      F2351   1.357       .  S
C2355      C2356   1.405       .  A
C2355      C2360   1.398       .  A
C2355      H2362   1.083       .  S
C2356      C2357   1.407       .  A
C2357      C2358   1.397       .  A
C2357      F2364   1.357       .  S
C2358      C2359   1.403       .  A
C2358      H2363   1.083       .  S
C2359      C2360   1.406       .  A
C2360      F2361   1.357       .  S
C2365      C2366   1.403       .  A
C2365      C2370   1.401       .  A
C2365      H2372   1.084       .  S
C2366      C2367   1.406       .  A
C2367      C2368   1.395       .  A
C2367      F2374   1.358       .  S
C2368      C2369   1.403       .  A
C2368      H2373   1.084       .  S
C2369      C2370   1.407       .  A
C2370      F2371   1.357       .  S
C2375      C2376   1.402       .  A
C2375      C2380   1.400       .  A
C2375      H2382   1.084       .  S
C2376      C2377   1.407       .  A
C2377      C2378   1.393       .  A
C2377      F2384   1.358       .  S
C2378      C2379   1.402       .  A
C2378      H2383   1.084       .  S
C2379      C2380   1.408       .  A
C2380      F2381   1.357       .  S
C2385      C2386   1.403       .  A
C2385      C2390   1.395       .  A
C2385      H2392   1.083       .  S
C2386      C2387   1.406       .  A
C2387      C2388   1.393       .  A
C2387      F2394   1.357       .  S
C2388      C2389   1.401       .  A
C2388      H2393   1.083       .  S
C2389      C2390   1.404       .  A
C2390      F2391   1.357       .  S
C2395      C2396   1.403       .  A
C2395      C2400   1.395       .  A
C2395      H2402   1.083       .  S
C2396      C2397   1.406       .  A
C2397      C2398   1.401       .  A
C2397      F2404   1.357       .  S
C2398      C2399   1.405       .  A
C2398      H2403   1.083       .  S
C2399      C2400   1.407       .  A
C2400      F2401   1.357       .  S
C2405      C2406   1.402       .  A
C2405      C2410   1.395       .  A
C2405      H2412   1.083       .  S
C2406      C2407   1.407       .  A
C2407      C2408   1.403       .  A
C2407      F2414   1.357       .  S
C2408      C2409   1.406       .  A
C2408      H2413   1.083       .  S
C2409      C2410   1.408       .  A
C2410      F2411   1.357       .  S
C2415      C2416   1.404       .  A
C2415      C2420   1.399       .  A
C2415      H2422   1.084       .  S
C2416      C2417   1.405       .  A
C2417      C2418   1.398       .  A
C2417      F2424   1.357       .  S
C2418      C2419   1.404       .  A
C2418      H2423   1.084       .  S
C2419      C2420   1.406       .  A
C2420      F2421   1.357       .  S
C2425      C2426   1.404       .  A
C2425      C2430   1.401       .  A
C2425      H2432   1.083       .  S
C2426      C2427   1.406       .  A
C2427      C2428   1.397       .  A
C2427      F2434   1.357       .  S
C2428      C2429   1.405       .  A
C2428      H2433   1.083       .  S
C2429      C2430   1.409       .  A
C2430      F2431   1.357       .  S
C2435      C2436   1.403       .  A
C2435      C2440   1.401       .  A
C2435      H2442   1.083       .  S
C2436      C2437   1.406       .  A
C2437      C2438   1.398       .  A
C2437      F2444   1.358       .  S
C2438      C2439   1.405       .  A
C2438      H2443   1.083       .  S
C2439      C2440   1.410       .  A
C2440      F2441   1.357       .  S
C2445      C2446   1.408       .  A
C2445      C2450   1.399       .  A
C2445      H2452   1.082       .  S
C2446      C2447   1.409       .  A
C2447      C2448   1.399       .  A
C2447      F2454   1.356       .  S
C2448      C2449   1.404       .  A
C2448      H2453   1.083       .  S
C2449      C2450   1.405       .  A
C2450      F2451   1.357       .  S
C2455      C2456   1.403       .  A
C2455      C2460   1.403       .  A
C2455      H2462   1.084       .  S
C2456      C2457   1.405       .  A
C2457      C2458   1.396       .  A
C2457      F2464   1.358       .  S
C2458      C2459   1.404       .  A
C2458      H2463   1.084       .  S
C2459      C2460   1.409       .  A
C2460      F2461   1.357       .  S
C2465      C2466   1.407       .  A
C2465      C2470   1.399       .  A
C2465      H2472   1.082       .  S
C2466      C2467   1.407       .  A
C2467      C2468   1.402       .  A
C2467      F2474   1.357       .  S
C2468      C2469   1.405       .  A
C2468      H2473   1.083       .  S
C2469      C2470   1.405       .  A
C2470      F2471   1.357       .  S
C2475      C2476   1.404       .  A
C2475      C2480   1.396       .  A
C2475      H2482   1.083       .  S
C2476      C2477   1.407       .  A
C2477      C2478   1.400       .  A
C2477      F2484   1.357       .  S
C2478      C2479   1.405       .  A
C2478      H2483   1.083       .  S
C2479      C2480   1.405       .  A
C2480      F2481   1.357       .  S
